# created with PyMOL 3.1.0
@<TRIPOS>MOLECULE
2baw
78 76 4                 
SMALL
USER_CHARGES
@<TRIPOS>ATOM
1	  C1	-9.810	-35.016	34.042	C.2	1	VCA201	0.000	
2	  O1	-10.639	-35.401	33.197	O.co2	1	VCA201	0.000	
3	  C2	-10.163	-35.288	35.519	C.3	1	VCA201	0.000	
4	  O2	-8.733	-34.427	33.791	O.co2	1	VCA201	0.000	
5	  C3	-9.546	-36.583	36.045	C.3	1	VCA201	0.000	
6	  C4	-10.190	-37.805	35.401	C.3	1	VCA201	0.000	
7	  C5	-9.580	-39.103	35.930	C.3	1	VCA201	0.000	
8	  C6	-8.518	-39.636	34.963	C.3	1	VCA201	0.000	
9	  C7	-7.883	-40.936	35.464	C.3	1	VCA201	0.000	
10	  C8	-6.833	-40.656	36.544	C.3	1	VCA201	0.000	
11	  C9	-5.409	-40.869	36.015	C.3	1	VCA201	0.000	
12	 C10	-4.392	-40.244	36.977	C.3	1	VCA201	0.000	
13	 C11	-3.773	-41.224	37.746	C.3	1	VCA201	0.000	
14	 C12	-3.780	-41.283	39.147	C.3	1	VCA201	0.000	
15	 C13	-4.410	-40.373	39.997	C.3	1	VCA201	0.000	
16	 C14	-5.291	-41.110	41.019	C.3	1	VCA201	0.000	
17	 C15	-4.517	-41.381	42.319	C.3	1	VCA201	0.000	
18	 C16	-5.461	-41.775	43.460	C.3	1	VCA201	0.000	
19	 C17	-4.682	-41.945	44.764	C.3	1	VCA201	0.000	
20	 C18	-5.587	-41.745	45.970	C.3	1	VCA201	0.000	
21	  C1	-9.012	-16.892	20.486	C.3	2	B7G920	0.000	
22	  O1	-8.245	-16.183	19.517	O.3	2	B7G920	0.000	
23	  C2	-10.479	-17.031	20.046	C.3	2	B7G920	0.000	
24	  O2	-11.152	-15.763	20.125	O.3	2	B7G920	0.000	
25	  C3	-11.239	-18.064	20.893	C.3	2	B7G920	0.000	
26	  O3	-12.535	-18.343	20.331	O.3	2	B7G920	0.000	
27	  C4	-10.457	-19.375	20.988	C.3	2	B7G920	0.000	
28	  O4	-11.084	-20.249	21.928	O.3	2	B7G920	0.000	
29	  C5	-9.008	-19.141	21.414	C.3	2	B7G920	0.000	
30	  O5	-8.386	-18.169	20.570	O.3	2	B7G920	0.000	
31	  C6	-8.225	-20.445	21.287	C.3	2	B7G920	0.000	
32	  O6	-6.865	-20.226	21.655	O.3	2	B7G920	0.000	
33	  C7	-7.812	-14.907	19.961	C.3	2	B7G920	0.000	
34	  C8	-6.338	-14.934	20.328	C.3	2	B7G920	0.000	
35	  C9	-5.494	-14.153	19.327	C.3	2	B7G920	0.000	
36	 C10	-4.407	-13.384	20.063	C.3	2	B7G920	0.000	
37	 C11	-3.041	-13.576	19.417	C.3	2	B7G920	0.000	
38	 C12	-2.128	-14.463	20.256	C.3	2	B7G920	0.000	
39	 C13	-0.982	-14.972	19.399	C.3	2	B7G920	0.000	
40	  C1	-9.816	-22.589	26.102	C.3	3	B7G921	0.000	
41	  O1	-9.436	-23.502	27.141	O.3	3	B7G921	0.000	
42	  C2	-11.306	-22.245	26.177	C.3	3	B7G921	0.000	
43	  O2	-12.119	-23.415	26.026	O.3	3	B7G921	0.000	
44	  C3	-11.650	-21.226	25.088	C.3	3	B7G921	0.000	
45	  O3	-13.034	-20.858	25.157	O.3	3	B7G921	0.000	
46	  C4	-10.750	-20.000	25.229	C.3	3	B7G921	0.000	
47	  O4	-11.023	-19.082	24.175	O.3	3	B7G921	0.000	
48	  C5	-9.289	-20.452	25.153	C.3	3	B7G921	0.000	
49	  O5	-9.062	-21.376	26.222	O.3	3	B7G921	0.000	
50	  C6	-8.250	-19.325	25.199	C.3	3	B7G921	0.000	
51	  O6	-8.730	-18.175	25.909	O.3	3	B7G921	0.000	
52	  C7	-8.318	-24.301	26.752	C.3	3	B7G921	0.000	
53	  C8	-7.646	-24.906	27.976	C.3	3	B7G921	0.000	
54	  C9	-6.368	-25.623	27.559	C.3	3	B7G921	0.000	
55	 C10	-5.137	-24.947	28.148	C.3	3	B7G921	0.000	
56	 C11	-4.008	-25.947	28.367	C.3	3	B7G921	0.000	
57	 C12	-2.651	-25.346	28.002	C.3	3	B7G921	0.000	
58	 C13	-1.928	-24.757	29.207	C.3	3	B7G921	0.000	
59	  C1	-5.981	-4.178	12.644	C.2	4	VCA478	0.000	
60	  O1	-5.116	-4.954	13.096	O.co2	4	VCA478	0.000	
61	  C2	-5.711	-3.566	11.267	C.3	4	VCA478	0.000	
62	  O2	-7.044	-3.853	13.214	O.co2	4	VCA478	0.000	
63	  C3	-5.221	-2.138	11.418	C.3	4	VCA478	0.000	
64	  C4	-6.118	-1.194	10.635	C.3	4	VCA478	0.000	
65	  C5	-6.046	0.232	11.199	C.3	4	VCA478	0.000	
66	  C6	-4.676	0.855	10.969	C.3	4	VCA478	0.000	
67	  C7	-4.046	1.331	12.280	C.3	4	VCA478	0.000	
68	  C8	-2.648	1.894	12.021	C.3	4	VCA478	0.000	
69	  C9	-1.641	0.790	11.668	C.3	4	VCA478	0.000	
70	 C10	-0.341	1.408	11.154	C.3	4	VCA478	0.000	
71	 C11	0.424	0.480	10.454	C.3	4	VCA478	0.000	
72	 C12	1.070	0.788	9.254	C.3	4	VCA478	0.000	
73	 C13	1.006	2.040	8.642	C.3	4	VCA478	0.000	
74	 C14	0.239	1.993	7.318	C.3	4	VCA478	0.000	
75	 C15	1.143	1.591	6.152	C.3	4	VCA478	0.000	
76	 C16	1.136	2.670	5.066	C.3	4	VCA478	0.000	
77	 C17	1.730	2.134	3.761	C.3	4	VCA478	0.000	
78	 C18	1.278	2.967	2.558	C.3	4	VCA478	0.000	
@<TRIPOS>BOND
1 1 2 ar
2 1 3 1
3 3 5 1
4 1 4 ar
5 5 6 1
6 6 7 1
7 7 8 1
8 8 9 1
9 9 10 1
10 10 11 1
11 11 12 1
12 12 13 1
13 13 14 1
14 14 15 1
15 15 16 1
16 16 17 1
17 17 18 1
18 18 19 1
19 19 20 1
20 21 22 1
21 21 23 1
22 22 33 1
23 23 24 1
24 23 25 1
25 25 26 1
26 25 27 1
27 27 28 1
28 27 29 1
29 29 30 1
30 29 31 1
31 21 30 1
32 31 32 1
33 33 34 1
34 34 35 1
35 35 36 1
36 36 37 1
37 37 38 1
38 38 39 1
39 40 41 1
40 40 42 1
41 41 52 1
42 42 43 1
43 42 44 1
44 44 45 1
45 44 46 1
46 46 47 1
47 46 48 1
48 48 49 1
49 48 50 1
50 40 49 1
51 50 51 1
52 52 53 1
53 53 54 1
54 54 55 1
55 55 56 1
56 56 57 1
57 57 58 1
58 59 60 ar
59 59 61 1
60 61 63 1
61 59 62 ar
62 63 64 1
63 64 65 1
64 65 66 1
65 66 67 1
66 67 68 1
67 68 69 1
68 69 70 1
69 70 71 1
70 71 72 1
71 72 73 1
72 73 74 1
73 74 75 1
74 75 76 1
75 76 77 1
76 77 78 1
@<TRIPOS>SUBSTRUCTURE
1	VCA201	1	GROUP	1 A	VCA
2	B7G920	21	GROUP	1 A	B7G
3	B7G921	40	GROUP	1 A	B7G
4	VCA478	59	GROUP	1 B	VCA
