# created with PyMOL 3.1.0
@<TRIPOS>MOLECULE
4hhb
172 200 4               
SMALL
USER_CHARGES
@<TRIPOS>ATOM
1	 CAA	20.773	20.694	19.113	C.3	1	HEM142	0.000	
2	 CAB	20.314	19.616	28.967	C.3	1	HEM142	0.000	
3	 CAC	15.919	13.759	25.843	C.3	1	HEM142	0.000	
4	 CAD	17.244	16.494	18.603	C.3	1	HEM142	0.000	
5	  NA	19.740	19.452	22.406	N.2	1	HEM142	0.000	
6	 CBA	20.048	21.689	18.733	C.3	1	HEM142	0.000	
7	 CBB	21.385	19.628	29.745	C.3	1	HEM142	0.000	
8	 CBC	16.189	12.746	26.670	C.3	1	HEM142	0.000	
9	 CBD	18.286	15.903	18.216	C.3	1	HEM142	0.000	
10	  NB	19.787	19.035	25.367	N.2	1	HEM142	0.000	
11	 CGA	21.309	22.355	16.897	C.3	1	HEM142	0.000	
12	 CGD	18.466	15.379	16.204	C.3	1	HEM142	0.000	
13	  ND	17.661	17.229	22.154	N.2	1	HEM142	0.000	
14	 CHA	18.675	18.641	20.464	C.3	1	HEM142	0.000	
15	 CHB	20.996	20.564	24.241	C.3	1	HEM142	0.000	
16	 CHC	18.666	17.711	27.273	C.3	1	HEM142	0.000	
17	 CHD	16.693	15.349	23.426	C.2	1	HEM142	0.000	
18	 CMA	22.334	21.915	21.498	C.3	1	HEM142	0.000	
19	 CMB	22.004	21.499	26.929	C.3	1	HEM142	0.000	
20	 CMC	17.072	15.268	28.333	C.3	1	HEM142	0.000	
21	 CMD	15.745	14.508	20.471	C.3	1	HEM142	0.000	
22	 C1A	19.403	19.426	21.131	C.2	1	HEM142	0.000	
23	 C1B	20.578	20.191	25.370	C.2	1	HEM142	0.000	
24	 C1C	17.818	16.891	26.484	C.2	1	HEM142	0.000	
25	 C1D	17.071	16.105	22.343	C.2	1	HEM142	0.000	
26	 O1A	20.230	21.524	16.437	O.3	1	HEM142	0.000	
27	 O1D	19.441	16.024	16.178	O.3	1	HEM142	0.000	
28	 C2A	20.508	20.450	20.584	C.2	1	HEM142	0.000	
29	 C2B	21.061	20.345	26.638	C.2	1	HEM142	0.000	
30	 C2C	17.238	15.704	26.953	C.2	1	HEM142	0.000	
31	 C2D	16.754	15.669	20.885	C.2	1	HEM142	0.000	
32	 O2A	19.899	22.984	16.799	O.3	1	HEM142	0.000	
33	 O2D	17.644	15.349	15.916	O.3	1	HEM142	0.000	
34	 C3A	21.199	20.992	21.589	C.2	1	HEM142	0.000	
35	 C3B	20.308	19.491	27.552	C.2	1	HEM142	0.000	
36	 C3C	16.751	14.913	25.912	C.2	1	HEM142	0.000	
37	 C3D	17.267	16.609	20.121	C.2	1	HEM142	0.000	
38	 C4A	20.664	20.361	22.870	C.2	1	HEM142	0.000	
39	 C4B	19.486	18.656	26.750	C.2	1	HEM142	0.000	
40	 C4C	17.049	15.765	24.601	C.2	1	HEM142	0.000	
41	 C4D	18.074	17.418	20.731	C.2	1	HEM142	0.000	
42	  NC	17.647	16.819	25.044	N.2	1	HEM142	0.000	
43	  FE	18.362	18.488	23.755	Fe	1	HEM142	0.000	
44	 CAA	20.843	1.153	61.811	C.3	2	HEM148	0.000	
45	 CAB	20.376	3.027	52.014	C.3	2	HEM148	0.000	
46	 CAC	18.612	9.938	55.795	C.3	2	HEM148	0.000	
47	 CAD	19.226	6.338	62.819	C.3	2	HEM148	0.000	
48	  NA	20.024	2.942	58.603	N.2	2	HEM148	0.000	
49	 CBA	19.662	0.448	62.341	C.3	2	HEM148	0.000	
50	 CBB	21.354	2.423	51.345	C.3	2	HEM148	0.000	
51	 CBC	19.172	10.844	55.145	C.3	2	HEM148	0.000	
52	 CBD	20.641	6.416	63.304	C.3	2	HEM148	0.000	
53	  NB	19.891	3.489	55.821	N.2	2	HEM148	0.000	
54	 CGA	19.478	-0.348	64.072	C.3	2	HEM148	0.000	
55	 CGD	20.969	6.040	65.088	C.3	2	HEM148	0.000	
56	  ND	19.310	5.720	59.043	N.2	2	HEM148	0.000	
57	 CHA	19.696	3.883	60.882	C.2	2	HEM148	0.000	
58	 CHB	20.531	1.307	56.812	C.2	2	HEM148	0.000	
59	 CHC	19.636	5.274	54.083	C.2	2	HEM148	0.000	
60	 CHD	18.716	7.814	58.136	C.2	2	HEM148	0.000	
61	 CMA	21.475	-0.544	59.191	C.3	2	HEM148	0.000	
62	 CMB	20.914	0.425	54.068	C.3	2	HEM148	0.000	
63	 CMC	19.339	8.147	53.123	C.3	2	HEM148	0.000	
64	 CMD	18.544	8.862	61.055	C.3	2	HEM148	0.000	
65	 C1A	20.038	2.914	60.015	C.2	2	HEM148	0.000	
66	 C1B	20.300	2.161	55.701	C.2	2	HEM148	0.000	
67	 C1C	19.317	6.327	55.097	C.2	2	HEM148	0.000	
68	 C1D	19.006	6.998	59.241	C.2	2	HEM148	0.000	
69	 O1A	19.826	1.004	64.507	O.3	2	HEM148	0.000	
70	 O1D	22.104	6.528	65.136	O.3	2	HEM148	0.000	
71	 C2A	20.601	1.628	60.340	C.2	2	HEM148	0.000	
72	 C2B	20.580	1.732	54.232	C.2	2	HEM148	0.000	
73	 C2C	19.211	7.643	54.498	C.2	2	HEM148	0.000	
74	 C2D	18.768	7.424	60.638	C.2	2	HEM148	0.000	
75	 O2A	19.035	-0.826	63.962	O.3	2	HEM148	0.000	
76	 O2D	19.864	6.347	65.549	O.3	2	HEM148	0.000	
77	 C3A	21.004	0.790	59.288	C.2	2	HEM148	0.000	
78	 C3B	20.293	2.817	53.607	C.2	2	HEM148	0.000	
79	 C3C	18.939	8.567	55.685	C.2	2	HEM148	0.000	
80	 C3D	18.923	6.175	61.235	C.2	2	HEM148	0.000	
81	 C4A	20.456	1.693	58.135	C.2	2	HEM148	0.000	
82	 C4B	19.876	3.979	54.587	C.2	2	HEM148	0.000	
83	 C4C	18.923	7.406	56.661	C.2	2	HEM148	0.000	
84	 C4D	19.494	5.137	60.358	C.2	2	HEM148	0.000	
85	  NC	19.239	6.099	56.480	N.2	2	HEM148	0.000	
86	  FE	19.264	4.466	57.461	Fe	2	HEM148	0.000	
87	 CAA	3.046	27.117	58.679	C.3	3	HEM142	0.000	
88	 CAB	2.665	24.241	49.128	C.3	3	HEM142	0.000	
89	 CAC	5.196	18.038	53.366	C.3	3	HEM142	0.000	
90	 CAD	5.092	22.124	60.147	C.3	3	HEM142	0.000	
91	  NA	3.598	25.067	55.570	N.2	3	HEM142	0.000	
92	 CBA	4.329	27.945	58.911	C.3	3	HEM142	0.000	
93	 CBB	1.687	24.897	48.641	C.3	3	HEM142	0.000	
94	 CBC	4.661	16.883	52.628	C.3	3	HEM142	0.000	
95	 CBD	3.813	21.818	60.637	C.3	3	HEM142	0.000	
96	  NB	3.462	24.312	52.870	N.2	3	HEM142	0.000	
97	 CGA	3.775	28.911	60.911	C.3	3	HEM142	0.000	
98	 CGD	3.734	22.247	62.515	C.3	3	HEM142	0.000	
99	  ND	4.793	22.519	56.403	N.2	3	HEM142	0.000	
100	 CHA	4.251	24.237	57.868	C.2	3	HEM142	0.000	
101	 CHB	2.656	26.418	53.811	C.2	3	HEM142	0.000	
102	 CHC	3.909	22.343	51.451	C.2	3	HEM142	0.000	
103	 CHD	5.199	20.082	55.472	C.2	3	HEM142	0.000	
104	 CMA	1.983	28.371	56.084	C.3	3	HEM142	0.000	
105	 CMB	1.854	26.863	50.871	C.3	3	HEM142	0.000	
106	 CMC	4.502	19.452	50.568	C.3	3	HEM142	0.000	
107	 CMD	5.894	19.560	58.433	C.3	3	HEM142	0.000	
108	 C1A	3.765	25.124	56.889	C.2	3	HEM142	0.000	
109	 C1B	2.913	25.638	52.726	C.2	3	HEM142	0.000	
110	 C1C	4.385	21.516	52.292	C.2	3	HEM142	0.000	
111	 C1D	5.018	21.161	56.456	C.2	3	HEM142	0.000	
112	 O1A	4.106	27.643	61.358	O.3	3	HEM142	0.000	
113	 O1D	2.827	22.571	62.603	O.3	3	HEM142	0.000	
114	 C2A	3.135	26.409	57.330	C.2	3	HEM142	0.000	
115	 C2B	2.364	25.645	51.278	C.2	3	HEM142	0.000	
116	 C2C	4.563	20.035	51.932	C.2	3	HEM142	0.000	
117	 C2D	5.407	20.858	57.961	C.2	3	HEM142	0.000	
118	 O2A	4.343	29.355	60.524	O.3	3	HEM142	0.000	
119	 O2D	4.388	21.393	62.880	O.3	3	HEM142	0.000	
120	 C3A	2.610	27.080	56.333	C.2	3	HEM142	0.000	
121	 C3B	2.881	24.580	50.703	C.2	3	HEM142	0.000	
122	 C3C	4.974	19.383	53.137	C.2	3	HEM142	0.000	
123	 C3D	5.052	22.019	58.552	C.2	3	HEM142	0.000	
124	 C4A	2.943	26.193	55.143	C.2	3	HEM142	0.000	
125	 C4B	3.490	23.673	51.737	C.2	3	HEM142	0.000	
126	 C4C	5.066	20.383	54.236	C.2	3	HEM142	0.000	
127	 C4D	4.735	23.011	57.662	C.2	3	HEM142	0.000	
128	  NC	4.712	21.591	53.665	N.2	3	HEM142	0.000	
129	  FE	4.445	23.463	54.548	Fe	3	HEM142	0.000	
130	 CAA	-4.487	1.500	19.875	C.3	4	HEM148	0.000	
131	 CAB	-2.846	4.354	29.573	C.3	4	HEM148	0.000	
132	 CAC	0.809	9.659	24.837	C.3	4	HEM148	0.000	
133	 CAD	-1.337	5.671	18.300	C.3	4	HEM148	0.000	
134	  NA	-2.975	3.248	23.071	N.2	4	HEM148	0.000	
135	 CBA	-3.521	0.804	19.553	C.3	4	HEM148	0.000	
136	 CBB	-3.708	4.424	30.032	C.3	4	HEM148	0.000	
137	 CBC	0.524	10.806	25.274	C.3	4	HEM148	0.000	
138	 CBD	-2.315	6.581	17.878	C.3	4	HEM148	0.000	
139	  NB	-2.569	4.252	25.747	N.2	4	HEM148	0.000	
140	 CGA	-3.140	0.203	17.272	C.3	4	HEM148	0.000	
141	 CGD	-3.042	6.103	16.062	C.3	4	HEM148	0.000	
142	  ND	-1.471	5.558	22.069	N.2	4	HEM148	0.000	
143	 CHA	-2.352	3.877	20.823	C.3	4	HEM148	0.000	
144	 CHB	-3.814	2.360	25.062	C.2	4	HEM148	0.000	
145	 CHC	-1.791	5.984	27.129	C.3	4	HEM148	0.000	
146	 CHD	0.009	7.659	22.833	C.3	4	HEM148	0.000	
147	 CMA	-5.548	0.622	22.950	C.3	4	HEM148	0.000	
148	 CMB	-4.267	1.954	27.997	C.3	4	HEM148	0.000	
149	 CMC	-0.442	8.954	27.749	C.3	4	HEM148	0.000	
150	 CMD	0.398	7.913	19.789	C.3	4	HEM148	0.000	
151	 C1A	-3.051	3.076	21.759	C.2	4	HEM148	0.000	
152	 C1B	-3.322	3.050	26.126	C.2	4	HEM148	0.000	
153	 C1C	-1.235	6.715	26.253	C.2	4	HEM148	0.000	
154	 C1D	-0.498	6.544	21.800	C.2	4	HEM148	0.000	
155	 O1A	-4.454	0.157	17.696	O.3	4	HEM148	0.000	
156	 O1D	-2.171	7.406	15.697	O.3	4	HEM148	0.000	
157	 C2A	-4.147	1.993	21.447	C.2	4	HEM148	0.000	
158	 C2B	-3.550	3.027	27.437	C.2	4	HEM148	0.000	
159	 C2C	-0.436	8.144	26.363	C.2	4	HEM148	0.000	
160	 C2D	-0.447	6.890	20.467	C.2	4	HEM148	0.000	
161	 O2A	-2.759	-1.510	17.524	O.3	4	HEM148	0.000	
162	 O2D	-2.568	5.381	15.796	O.3	4	HEM148	0.000	
163	 C3A	-4.533	1.556	22.586	C.2	4	HEM148	0.000	
164	 C3B	-2.926	3.983	28.016	C.2	4	HEM148	0.000	
165	 C3C	0.127	8.530	25.154	C.2	4	HEM148	0.000	
166	 C3D	-1.152	5.676	19.845	C.2	4	HEM148	0.000	
167	 C4A	-3.678	2.444	23.644	C.2	4	HEM148	0.000	
168	 C4B	-2.272	4.739	26.961	C.2	4	HEM148	0.000	
169	 C4C	-0.351	7.466	24.259	C.2	4	HEM148	0.000	
170	 C4D	-1.929	5.008	20.769	C.2	4	HEM148	0.000	
171	  NC	-1.102	6.496	24.910	N.2	4	HEM148	0.000	
172	  FE	-1.727	4.699	23.942	Fe	4	HEM148	0.000	
@<TRIPOS>BOND
1 1 6 1
2 2 7 1
3 3 8 1
4 4 9 1
5 5 43 1
6 6 11 1
7 9 12 1
8 10 43 1
9 11 26 1
10 11 32 1
11 12 27 1
12 12 33 1
13 13 43 1
14 14 22 1
15 14 41 1
16 15 23 1
17 15 38 1
18 16 24 1
19 16 39 1
20 17 25 ar
21 17 40 ar
22 5 22 ar
23 22 28 ar
24 10 23 ar
25 23 29 ar
26 24 30 ar
27 24 42 ar
28 13 25 ar
29 25 31 ar
30 1 28 1
31 28 34 ar
32 19 29 1
33 29 35 ar
34 20 30 1
35 30 36 ar
36 21 31 1
37 31 37 ar
38 18 34 1
39 34 38 ar
40 2 35 1
41 35 39 ar
42 3 36 1
43 36 40 ar
44 4 37 1
45 37 41 ar
46 5 38 ar
47 10 39 ar
48 40 42 ar
49 13 41 ar
50 42 43 1
51 44 49 1
52 45 50 1
53 46 51 1
54 47 52 1
55 48 86 1
56 49 54 1
57 52 55 1
58 53 86 1
59 54 69 1
60 54 75 1
61 55 70 1
62 55 76 1
63 56 86 1
64 57 65 ar
65 57 84 ar
66 58 66 ar
67 58 81 ar
68 59 67 ar
69 59 82 ar
70 60 68 ar
71 60 83 ar
72 48 65 ar
73 65 71 ar
74 53 66 ar
75 66 72 ar
76 67 73 ar
77 67 85 ar
78 56 68 ar
79 68 74 ar
80 44 71 1
81 71 77 ar
82 62 72 1
83 72 78 ar
84 63 73 1
85 73 79 ar
86 64 74 1
87 74 80 ar
88 61 77 1
89 77 81 ar
90 45 78 1
91 78 82 ar
92 46 79 1
93 79 83 ar
94 47 80 1
95 80 84 ar
96 48 81 ar
97 53 82 ar
98 83 85 ar
99 56 84 ar
100 85 86 1
101 87 92 1
102 88 93 1
103 89 94 1
104 90 95 1
105 91 129 1
106 92 97 1
107 95 98 1
108 96 129 1
109 97 112 1
110 97 118 1
111 98 113 1
112 98 119 1
113 99 129 1
114 100 108 ar
115 100 127 ar
116 101 109 ar
117 101 124 ar
118 102 110 ar
119 102 125 ar
120 103 111 ar
121 103 126 ar
122 91 108 ar
123 108 114 ar
124 96 109 ar
125 109 115 ar
126 110 116 ar
127 110 128 ar
128 99 111 ar
129 111 117 ar
130 87 114 1
131 114 120 ar
132 105 115 1
133 115 121 ar
134 106 116 1
135 116 122 ar
136 107 117 1
137 117 123 ar
138 104 120 1
139 120 124 ar
140 88 121 1
141 121 125 ar
142 89 122 1
143 122 126 ar
144 90 123 1
145 123 127 ar
146 91 124 ar
147 96 125 ar
148 126 128 ar
149 99 127 ar
150 128 129 1
151 130 135 1
152 131 136 1
153 132 137 1
154 133 138 1
155 134 172 1
156 135 140 1
157 138 141 1
158 139 172 1
159 140 155 1
160 140 161 1
161 141 156 1
162 141 162 1
163 142 172 1
164 143 151 1
165 143 170 1
166 144 152 ar
167 144 167 ar
168 145 153 1
169 145 168 1
170 146 154 1
171 146 169 1
172 134 151 ar
173 151 157 ar
174 139 152 ar
175 152 158 ar
176 153 159 ar
177 153 171 ar
178 142 154 ar
179 154 160 ar
180 130 157 1
181 157 163 ar
182 148 158 1
183 158 164 ar
184 149 159 1
185 159 165 ar
186 150 160 1
187 160 166 ar
188 147 163 1
189 163 167 ar
190 131 164 1
191 164 168 ar
192 132 165 1
193 165 169 ar
194 133 166 1
195 166 170 ar
196 134 167 ar
197 139 168 ar
198 169 171 ar
199 142 170 ar
200 171 172 1
@<TRIPOS>SUBSTRUCTURE
1	HEM142	1	GROUP	1 A	HEM
2	HEM148	44	GROUP	1 B	HEM
3	HEM142	87	GROUP	1 C	HEM
4	HEM148	130	GROUP	1 D	HEM
