@<TRIPOS>MOLECULE
9fbd
 438 462 0 0 0
SMALL
USER_CHARGES

@<TRIPOS>ATOM
      1 PA         11.6780   21.6000    0.5850 P.3     1  NAD3011     0.4835
      2 PN         12.6310   23.7350    2.3180 P.3     1  NAD3011     0.4835
      3 C1B        11.2580   15.9880    2.5520 C.3     1  NAD3011     0.1667
      4 C1D        12.3160   25.9290    6.6290 C.3     1  NAD3011     0.1541
      5 N1A        10.6180   12.7240    6.4360 N.ar    1  NAD3011    -0.2188
      6 N1N        12.9290   27.1400    6.0150 N.pl3   1  NAD3011    -0.3043
      7 O1A        10.2910   21.2050    0.1980 O.3     1  NAD3011    -0.3022
      8 O1N        12.4340   25.0140    1.6490 O.3     1  NAD3011    -0.3022
      9 C2A        11.6590   12.9640    5.6370 C.ar    1  NAD3011     0.1205
     10 C2B        10.7570   16.2330    1.1270 C.3     1  NAD3011     0.1285
     11 C2D        10.9100   25.6000    6.1120 C.3     1  NAD3011     0.1262
     12 C2N        12.8590   27.3800    4.6530 C.3     1  NAD3011     0.0440
     13 O2A        12.5880   22.1510   -0.4730 O.2     1  NAD3011    -0.2269
     14 O2B        10.8830   15.0420    0.3760 O.3     1  NAD3011    -0.3847
     15 O2D         9.9950   26.4090    6.8380 O.3     1  NAD3011    -0.3849
     16 O2N        13.9510   23.0200    2.2850 O.2     1  NAD3011    -0.2269
     17 C3B        11.7620   17.3090    0.6720 C.3     1  NAD3011     0.1135
     18 C3D        10.8340   24.1140    6.4710 C.3     1  NAD3011     0.1133
     19 C3N        13.4840   28.5020    4.1110 C.2     1  NAD3011     0.0313
     20 N3A        11.7570   13.8360    4.6360 N.ar    1  NAD3011    -0.2159
     21 O3         11.5650   22.6620    1.7880 O.3     1  NAD3011    -0.1861
     22 O3B        12.9130   16.7220    0.0710 O.3     1  NAD3011    -0.3864
     23 O3D        10.5170   23.9430    7.8550 O.3     1  NAD3011    -0.3864
     24 C4A        10.5990   14.4810    4.4540 C.ar    1  NAD3011     0.1674
     25 C4B        12.1630   18.0430    1.9750 C.3     1  NAD3011     0.1134
     26 C4D        12.2550   23.6100    6.1830 C.3     1  NAD3011     0.1132
     27 C4N        14.1570   29.3960    4.9610 C.2     1  NAD3011    -0.0510
     28 O4B        11.6450   17.2450    3.0550 O.3     1  NAD3011    -0.3456
     29 O4D        13.1080   24.7780    6.3210 O.3     1  NAD3011    -0.3479
     30 C5A         9.4380   14.3120    5.1770 C.ar    1  NAD3011     0.1473
     31 C5B        11.6510   19.4450    2.1770 C.3     1  NAD3011     0.0879
     32 C5D        12.4910   22.9970    4.8190 C.3     1  NAD3011     0.0879
     33 C5N        14.3610   29.0410    6.2870 C.2     1  NAD3011    -0.0475
     34 O5B        12.3490   20.3290    1.2670 O.3     1  NAD3011    -0.2837
     35 O5D        12.1360   23.9420    3.8270 O.3     1  NAD3011    -0.2837
     36 C6A         9.4590   13.3730    6.2120 C.ar    1  NAD3011     0.1472
     37 C6N        13.6500   27.9890    6.8060 C.2     1  NAD3011    -0.0053
     38 N6A         8.4010   13.1310    6.9790 N.pl3   1  NAD3011    -0.3413
     39 C7N        13.4490   28.7730    2.6280 C.2     1  NAD3011     0.2391
     40 N7A         8.4410   15.1510    4.7190 N.ar    1  NAD3011    -0.2306
     41 N7N        13.2280   27.7590    1.7940 N.am    1  NAD3011    -0.3256
     42 O7N        13.6890   29.9110    2.2520 O.2     1  NAD3011    -0.2707
     43 C8A         9.0120   15.8160    3.7390 C.ar    1  NAD3011     0.1004
     44 N9A        10.3110   15.4330    3.5070 N.ar    1  NAD3011    -0.2855
     45 PA         24.9940    3.5940  -14.3000 P.3     2  NAD3012     0.4835
     46 PN         26.1370    0.9970  -14.9150 P.3     2  NAD3012     0.4835
     47 C1B        24.6090    7.6910  -18.6180 C.3     2  NAD3012     0.1667
     48 C1D        25.9310   -3.0320  -17.7420 C.3     2  NAD3012     0.1541
     49 N1A        24.5450    8.9800  -23.5620 N.ar    2  NAD3012    -0.2188
     50 N1N        26.6160   -3.7760  -16.6400 N.pl3   2  NAD3012    -0.3043
     51 O1A        23.5780    3.9750  -14.0750 O.3     2  NAD3012    -0.3022
     52 O1N        26.0150    0.1910  -13.6720 O.3     2  NAD3012    -0.3022
     53 C2A        25.4850    9.0450  -22.6170 C.ar    2  NAD3012     0.1205
     54 C2B        23.9650    8.0190  -17.2870 C.3     2  NAD3012     0.1285
     55 C2D        24.4950   -2.5880  -17.4120 C.3     2  NAD3012     0.1262
     56 C2N        26.5060   -3.3470  -15.3210 C.3     2  NAD3012     0.0440
     57 O2A        25.9600    3.6990  -13.1790 O.2     2  NAD3012    -0.2269
     58 O2B        23.8960    9.4170  -17.0560 O.3     2  NAD3012    -0.3847
     59 O2D        23.6070   -3.6740  -17.6110 O.3     2  NAD3012    -0.3849
     60 O2N        27.4270    1.6910  -15.2320 O.2     2  NAD3012    -0.2269
     61 C3B        24.9270    7.2810  -16.3500 C.3     2  NAD3012     0.1135
     62 C3D        24.3050   -1.4110  -18.3750 C.3     2  NAD3012     0.1133
     63 C3N        27.1880   -4.0040  -14.3010 C.2     2  NAD3012     0.0313
     64 N3A        25.4160    8.7020  -21.3320 N.ar    2  NAD3012    -0.2159
     65 O3         24.9740    2.1130  -14.9300 O.3     2  NAD3012    -0.1861
     66 O3B        26.0500    8.0630  -15.9720 O.3     2  NAD3012    -0.3864
     67 O3D        24.0060   -1.8630  -19.6910 O.3     2  NAD3012    -0.3864
     68 C4A        24.1980    8.2510  -21.0200 C.ar    2  NAD3012     0.1674
     69 C4B        25.4140    6.0790  -17.1740 C.3     2  NAD3012     0.1134
     70 C4D        25.6820   -0.7440  -18.3460 C.3     2  NAD3012     0.1132
     71 C4N        27.9770   -5.1420  -14.6330 C.2     2  NAD3012    -0.0510
     72 O4B        24.9850    6.3330  -18.5300 O.3     2  NAD3012    -0.3456
     73 O4D        26.6410   -1.7940  -17.9910 O.3     2  NAD3012    -0.3479
     74 C5A        23.1150    8.1560  -21.8720 C.ar    2  NAD3012     0.1473
     75 C5B        24.9100    4.7360  -16.7180 C.3     2  NAD3012     0.0879
     76 C5D        25.8260    0.4730  -17.4540 C.3     2  NAD3012     0.0879
     77 C5N        28.2300   -5.4090  -15.9670 C.2     2  NAD3012    -0.0475
     78 O5B        25.5860    4.4440  -15.4930 O.3     2  NAD3012    -0.2837
     79 O5D        25.6790    0.0890  -16.1200 O.3     2  NAD3012    -0.2837
     80 C6A        23.3140    8.5580  -23.2070 C.ar    2  NAD3012     0.1472
     81 C6N        27.4360   -4.8520  -16.9390 C.2     2  NAD3012    -0.0053
     82 N6A        22.3940    8.4890  -24.1620 N.pl3   2  NAD3012    -0.3413
     83 C7N        27.1670   -3.4790  -12.8880 C.2     2  NAD3012     0.2391
     84 N7A        22.0310    7.6370  -21.1880 N.ar    2  NAD3012    -0.2306
     85 N7N        26.7890   -2.2150  -12.6610 N.am    2  NAD3012    -0.3256
     86 O7N        27.5740   -4.2190  -12.0080 O.2     2  NAD3012    -0.2707
     87 C8A        22.4470    7.4860  -19.9580 C.ar    2  NAD3012     0.1004
     88 N9A        23.7670    7.8330  -19.7930 N.ar    2  NAD3012    -0.2855
     89 PA         23.0470   16.6160  -53.2990 P.3     3  NAD3013     0.4835
     90 PN         21.9860   19.2900  -52.7440 P.3     3  NAD3013     0.4835
     91 C1B        19.3330   12.6570  -55.7710 C.3     3  NAD3013     0.1667
     92 C1D        19.7120   23.2810  -54.3240 C.3     3  NAD3013     0.1541
     93 N1A        15.2390   11.4420  -58.6550 N.ar    3  NAD3013    -0.2188
     94 N1N        20.3660   24.0120  -53.2150 N.pl3   3  NAD3013    -0.3043
     95 O1A        23.8920   16.1120  -54.3910 O.3     3  NAD3013    -0.3022
     96 O1N        23.1710   20.0780  -52.2750 O.3     3  NAD3013    -0.3022
     97 C2A        15.4570   11.3960  -57.3300 C.ar    3  NAD3013     0.1205
     98 C2B        20.7920   12.2620  -55.6040 C.3     3  NAD3013     0.1285
     99 C2D        20.6470   22.7870  -55.4150 C.3     3  NAD3013     0.1262
    100 C2N        21.6180   23.6490  -52.7370 C.3     3  NAD3013     0.0440
    101 O2A        23.5050   16.6560  -51.8830 O.2     3  NAD3013    -0.2269
    102 O2B        20.9690   10.8680  -55.5120 O.3     3  NAD3013    -0.3847
    103 O2D        20.9360   23.7640  -56.4070 O.3     3  NAD3013    -0.3849
    104 O2N        21.1160   18.7090  -51.6720 O.2     3  NAD3013    -0.2269
    105 C3B        21.1010   12.9330  -54.2640 C.3     3  NAD3013     0.1135
    106 C3D        19.7870   21.6570  -55.9950 C.3     3  NAD3013     0.1133
    107 C3N        22.1240   24.2770  -51.6170 C.2     3  NAD3013     0.0313
    108 N3A        16.5570   11.7270  -56.6470 N.ar    3  NAD3013    -0.2159
    109 O3         22.4990   18.1100  -53.6990 O.3     3  NAD3013    -0.1861
    110 O3B        20.6820   12.1330  -53.1670 O.3     3  NAD3013    -0.3864
    111 O3D        18.8190   22.1600  -56.9030 O.3     3  NAD3013    -0.3864
    112 C4A        17.5350   12.1480  -57.4690 C.ar    3  NAD3013     0.1674
    113 C4B        20.2510   14.2160  -54.3080 C.3     3  NAD3013     0.1134
    114 C4D        19.1180   21.0630  -54.7450 C.3     3  NAD3013     0.1132
    115 C4N        21.4280   25.3570  -51.0570 C.2     3  NAD3013    -0.0510
    116 O4B        19.2670   14.0000  -55.3470 O.3     3  NAD3013    -0.3456
    117 O4D        19.1120   22.1100  -53.7540 O.3     3  NAD3013    -0.3479
    118 C5A        17.4530   12.2570  -58.8420 C.ar    3  NAD3013     0.1473
    119 C5B        21.0250   15.4790  -54.5630 C.3     3  NAD3013     0.0879
    120 C5D        19.7740   19.8480  -54.1300 C.3     3  NAD3013     0.0879
    121 C5N        20.1810   25.7070  -51.5410 C.2     3  NAD3013    -0.0475
    122 O5B        21.6860   15.7890  -53.3300 O.3     3  NAD3013    -0.2837
    123 O5D        21.1390   20.1700  -53.7780 O.3     3  NAD3013    -0.2837
    124 C6A        16.2410   11.8820  -59.4500 C.ar    3  NAD3013     0.1472
    125 C6N        19.6620   25.0320  -52.6170 C.2     3  NAD3013    -0.0053
    126 N6A        16.0390   11.9460  -60.7600 N.pl3   3  NAD3013    -0.3413
    127 C7N        23.3960   23.8080  -50.9620 C.2     3  NAD3013     0.2391
    128 N7A        18.6520   12.7270  -59.3600 N.ar    3  NAD3013    -0.2306
    129 N7N        23.7930   22.5570  -51.1420 N.am    3  NAD3013    -0.3256
    130 O7N        23.9660   24.5800  -50.2100 O.2     3  NAD3013    -0.2707
    131 C8A        19.4230   12.8980  -58.3070 C.ar    3  NAD3013     0.1004
    132 N9A        18.8050   12.5750  -57.1270 N.ar    3  NAD3013    -0.2855
    133 PA         55.3300   29.2760    1.0010 P.3     4  NAD3014     0.4835
    134 PN         56.4520   31.8930    0.4390 P.3     4  NAD3014     0.4835
    135 C1B        57.1810   24.6280   -2.1540 C.3     4  NAD3014     0.1667
    136 C1D        60.3960   34.6940   -0.4170 C.3     4  NAD3014     0.1541
    137 N1A        60.5600   22.3910   -5.2780 N.ar    4  NAD3014    -0.2188
    138 N1N        59.5500   35.8930   -0.1480 N.pl3   4  NAD3014    -0.3043
    139 O1A        55.7420   28.3260    2.0660 O.3     4  NAD3014    -0.3022
    140 O1N        55.9080   32.9000    1.3950 O.3     4  NAD3014    -0.3022
    141 C2A        59.3800   22.9810   -5.5010 C.ar    4  NAD3014     0.1205
    142 C2B        56.3190   24.3600   -0.9270 C.3     4  NAD3014     0.1285
    143 C2D        60.6210   33.7870    0.7990 C.3     4  NAD3014     0.1262
    144 C2N        58.4370   35.8240    0.6860 C.3     4  NAD3014     0.0440
    145 O2A        54.0320   30.0150    1.0050 O.2     4  NAD3014    -0.2269
    146 O2B        55.6490   23.1170   -1.0590 O.3     4  NAD3014    -0.3847
    147 O2D        61.7180   34.2120    1.6010 O.3     4  NAD3014    -0.3849
    148 O2N        55.8280   31.8410   -0.9220 O.2     4  NAD3014    -0.2269
    149 C3B        55.4030   25.5960   -0.9800 C.3     4  NAD3014     0.1135
    150 C3D        60.9350   32.4800    0.0620 C.3     4  NAD3014     0.1133
    151 C3N        57.6890   36.9760    0.9530 C.2     4  NAD3014     0.0313
    152 N3A        58.5450   23.5350   -4.6260 N.ar    4  NAD3014    -0.2159
    153 O3         56.4900   30.4130    1.0410 O.3     4  NAD3014    -0.1861
    154 O3B        54.2470   25.4220   -1.7910 O.3     4  NAD3014    -0.3864
    155 O3D        62.2820   32.4490   -0.3950 O.3     4  NAD3014    -0.3864
    156 C4A        59.0250   23.4390   -3.3720 C.ar    4  NAD3014     0.1674
    157 C4B        56.2720   26.6880   -1.6390 C.3     4  NAD3014     0.1134
    158 C4D        59.9860   32.5160   -1.1470 C.3     4  NAD3014     0.1132
    159 C4N        58.1770   38.2050    0.4810 C.2     4  NAD3014    -0.0510
    160 O4B        57.4630   26.0070   -2.0950 O.3     4  NAD3014    -0.3456
    161 O4D        59.7540   33.9010   -1.4140 O.3     4  NAD3014    -0.3479
    162 C5A        60.2130   22.8540   -2.9840 C.ar    4  NAD3014     0.1473
    163 C5B        56.6740   27.8360   -0.7490 C.3     4  NAD3014     0.0879
    164 C5D        58.6600   31.8050   -0.9990 C.3     4  NAD3014     0.0879
    165 C5N        59.0990   38.2030   -0.5490 C.2     4  NAD3014    -0.0475
    166 O5B        55.5030   28.6100   -0.4620 O.3     4  NAD3014    -0.2837
    167 O5D        58.0440   32.1330    0.2930 O.3     4  NAD3014    -0.2837
    168 C6A        61.0050   22.2980   -4.0000 C.ar    4  NAD3014     0.1472
    169 C6N        59.8870   37.0980   -0.7200 C.2     4  NAD3014    -0.0053
    170 N6A        62.1770   21.7190   -3.7750 N.pl3   4  NAD3014    -0.3413
    171 C7N        56.4040   36.8530    1.7290 C.2     4  NAD3014     0.2391
    172 N7A        60.3710   22.9420   -1.6050 N.ar    4  NAD3014    -0.2306
    173 N7N        55.9310   35.6390    1.9780 N.am    4  NAD3014    -0.3256
    174 O7N        55.8150   37.8690    2.0690 O.2     4  NAD3014    -0.2707
    175 C8A        59.3070   23.5910   -1.1940 C.ar    4  NAD3014     0.1004
    176 N9A        58.4400   23.9020   -2.2190 N.ar    4  NAD3014    -0.2855
    177 PA         18.3900   71.4620   11.5020 P.3     5  NAD3015     0.4835
    178 PN         17.2800   69.3750    9.7880 P.3     5  NAD3015     0.4835
    179 C1B        16.4300   76.9440   10.9520 C.3     5  NAD3015     0.1667
    180 C1D        13.2830   67.2710    7.8770 C.3     5  NAD3015     0.1541
    181 N1A        12.8870   80.4570    9.6840 N.ar    5  NAD3015    -0.2188
    182 N1N        14.1320   66.0990    7.5690 N.pl3   5  NAD3015    -0.3043
    183 O1A        18.0150   71.8130   12.8760 O.3     5  NAD3015    -0.3022
    184 O1N        17.7990   68.0300   10.1420 O.3     5  NAD3015    -0.3022
    185 C2A        14.0310   80.0730    9.0850 C.ar    5  NAD3015     0.1205
    186 C2B        17.3600   76.6260   12.1140 C.3     5  NAD3015     0.1285
    187 C2D        13.0720   67.5230    9.3660 C.3     5  NAD3015     0.1262
    188 C2N        15.3260   65.8380    8.2890 C.3     5  NAD3015     0.0440
    189 O2A        19.7090   70.8490   11.1440 O.2     5  NAD3015    -0.2269
    190 O2B        17.9840   77.8210   12.5230 O.3     5  NAD3015    -0.3847
    191 O2D        12.0200   66.6840    9.8260 O.3     5  NAD3015    -0.3849
    192 O2N        17.8660   70.1200    8.6250 O.2     5  NAD3015    -0.2269
    193 C3B        18.2910   75.6290   11.4170 C.3     5  NAD3015     0.1135
    194 C3D        12.7170   69.0100    9.3350 C.3     5  NAD3015     0.1133
    195 C3N        16.0280   64.6650    8.0190 C.2     5  NAD3015     0.0313
    196 N3A        14.9140   79.1450    9.4670 N.ar    5  NAD3015    -0.2159
    197 O3         17.2900   70.3930   10.9990 O.3     5  NAD3015    -0.1861
    198 O3B        19.3610   76.2500   10.7170 O.3     5  NAD3015    -0.3864
    199 O3D        11.3600   69.2630    8.9550 O.3     5  NAD3015    -0.3864
    200 C4A        14.5310   78.5570   10.6190 C.ar    5  NAD3015     0.1674
    201 C4B        17.3670   74.9220   10.4030 C.3     5  NAD3015     0.1134
    202 C4D        13.6630   69.5530    8.2540 C.3     5  NAD3015     0.1132
    203 C4N        15.5120   63.7730    7.0760 C.2     5  NAD3015    -0.0510
    204 O4B        16.1670   75.7150   10.3460 O.3     5  NAD3015    -0.3456
    205 O4D        13.9020   68.4520    7.3510 O.3     5  NAD3015    -0.3479
    206 C5A        13.3880   78.8330   11.3380 C.ar    5  NAD3015     0.1473
    207 C5B        16.9680   73.5150   10.7470 C.3     5  NAD3015     0.0879
    208 C5D        14.9870   70.1240    8.7080 C.3     5  NAD3015     0.0879
    209 C5N        14.5800   64.2360    6.1510 C.2     5  NAD3015    -0.0475
    210 O5B        18.1060   72.6910   10.5480 O.3     5  NAD3015    -0.2837
    211 O5D        15.6820   69.2000    9.5600 O.3     5  NAD3015    -0.2837
    212 C6A        12.5430   79.8380   10.8420 C.ar    5  NAD3015     0.1472
    213 C6N        13.7960   65.2980    6.5000 C.2     5  NAD3015    -0.0053
    214 N6A        11.4170   80.1770   11.4540 N.pl3   5  NAD3015    -0.3413
    215 C7N        17.3180   64.3440    8.7310 C.2     5  NAD3015     0.2391
    216 N7A        13.3180   78.0340   12.4740 N.ar    5  NAD3015    -0.2306
    217 N7N        17.8380   65.2650    9.5220 N.am    5  NAD3015    -0.3256
    218 O7N        17.8380   63.2530    8.5470 O.2     5  NAD3015    -0.2707
    219 C8A        14.3960   77.2910   12.4190 C.ar    5  NAD3015     0.1004
    220 N9A        15.1690   77.5570   11.3190 N.ar    5  NAD3015    -0.2855
    221 PA         33.0890   64.3110  -40.3960 P.3     6  NAD3016     0.4835
    222 PN         33.9390   61.5250  -41.2270 P.3     6  NAD3016     0.4835
    223 C1B        36.9640   68.7180  -40.5630 C.3     6  NAD3016     0.1667
    224 C1D        36.2780   59.6290  -45.1700 C.3     6  NAD3016     0.1541
    225 N1A        41.1690   71.1880  -42.1690 N.ar    6  NAD3016    -0.2188
    226 N1N        34.9260   59.2270  -45.7240 N.pl3   6  NAD3016    -0.3043
    227 O1A        32.4480   65.3150  -41.3070 O.3     6  NAD3016    -0.3022
    228 O1N        32.7240   60.6320  -41.2940 O.3     6  NAD3016    -0.3022
    229 C2A        40.8670   70.5530  -41.0270 C.ar    6  NAD3016     0.1205
    230 C2B        35.4890   68.9900  -40.2840 C.3     6  NAD3016     0.1285
    231 C2D        36.7870   60.9970  -45.6470 C.3     6  NAD3016     0.1262
    232 C2N        34.1290   58.2280  -45.1340 C.3     6  NAD3016     0.0440
    233 O2A        32.3230   63.8040  -39.2040 O.2     6  NAD3016    -0.2269
    234 O2B        35.2660   70.2260  -39.6210 O.3     6  NAD3016    -0.3847
    235 O2D        37.5710   60.9620  -46.8230 O.3     6  NAD3016    -0.3849
    236 O2N        34.8940   61.4280  -40.0630 O.2     6  NAD3016    -0.2269
    237 C3B        35.1580   67.7220  -39.4740 C.3     6  NAD3016     0.1135
    238 C3D        37.7330   61.4700  -44.5390 C.3     6  NAD3016     0.1133
    239 C3N        33.1890   57.5540  -45.9470 C.2     6  NAD3016     0.0313
    240 N3A        39.7390   69.9400  -40.6730 N.ar    6  NAD3016    -0.2159
    241 O3         33.4740   63.0670  -41.3530 O.3     6  NAD3016    -0.1861
    242 O3B        35.4340   67.8270  -38.0820 O.3     6  NAD3016    -0.3864
    243 O3D        39.0880   61.0410  -44.6540 O.3     6  NAD3016    -0.3864
    244 C4A        38.8240   70.0080  -41.6540 C.ar    6  NAD3016     0.1674
    245 C4B        36.0900   66.6440  -40.0610 C.3     6  NAD3016     0.1134
    246 C4D        37.0060   60.9260  -43.3080 C.3     6  NAD3016     0.1132
    247 C4N        32.7140   58.2040  -47.0970 C.2     6  NAD3016    -0.0510
    248 O4B        37.0240   67.3510  -40.9130 O.3     6  NAD3016    -0.3456
    249 O4D        36.2270   59.7730  -43.7460 O.3     6  NAD3016    -0.3479
    250 C5A        38.9770   70.6260  -42.8830 C.ar    6  NAD3016     0.1473
    251 C5B        35.4070   65.5540  -40.8330 C.3     6  NAD3016     0.0879
    252 C5D        36.1000   61.9350  -42.6530 C.3     6  NAD3016     0.0879
    253 C5N        33.3520   59.3270  -47.5520 C.2     6  NAD3016    -0.0475
    254 O5B        34.5320   64.8590  -39.9220 O.3     6  NAD3016    -0.2837
    255 O5D        34.7630   61.3870  -42.5990 O.3     6  NAD3016    -0.2837
    256 C6A        40.2220   71.2470  -43.1370 C.ar    6  NAD3016     0.1472
    257 C6N        34.5060   59.7500  -46.9150 C.2     6  NAD3016    -0.0053
    258 N6A        40.5320   71.8610  -44.2760 N.pl3   6  NAD3016    -0.3413
    259 C7N        32.6790   56.1550  -45.6650 C.2     6  NAD3016     0.2391
    260 N7A        37.8120   70.4900  -43.6360 N.ar    6  NAD3016    -0.2306
    261 N7N        33.1310   55.1610  -46.4210 N.am    6  NAD3016    -0.3256
    262 O7N        31.8190   55.9810  -44.8070 O.2     6  NAD3016    -0.2707
    263 C8A        36.9960   69.8130  -42.8630 C.ar    6  NAD3016     0.1004
    264 N9A        37.5500   69.4960  -41.6430 N.ar    6  NAD3016    -0.2855
    265 H          12.0293   15.2519    2.4617 H       1  NAD3011     0.0866
    266 H          12.2636   26.1523    7.6741 H       1  NAD3011     0.0836
    267 H           9.8463   21.9570   -0.2234 H       1  NAD3011     0.2220
    268 H          13.0842   25.6544    1.9777 H       1  NAD3011     0.2220
    269 H          12.5019   12.3973    5.8195 H       1  NAD3011     0.1048
    270 H           9.7325   16.5248    1.0266 H       1  NAD3011     0.0665
    271 H          10.6971   25.7784    5.0787 H       1  NAD3011     0.0663
    272 H          12.3445   26.7287    4.0397 H       1  NAD3011     0.0515
    273 H          13.6741   26.7579    4.7702 H       1  NAD3011     0.0515
    274 H          11.7976   14.7229    0.4269 H       1  NAD3011     0.2101
    275 H          10.1412   26.2885    7.7893 H       1  NAD3011     0.2101
    276 H          11.3367   17.9616   -0.0616 H       1  NAD3011     0.0647
    277 H          10.0784   23.5898    5.9240 H       1  NAD3011     0.0647
    278 H          13.3351   16.1185    0.7022 H       1  NAD3011     0.2100
    279 H          11.1770   24.4028    8.3971 H       1  NAD3011     0.2100
    280 H          13.2264   18.1513    1.9274 H       1  NAD3011     0.0647
    281 H          12.4562   22.8093    6.8637 H       1  NAD3011     0.0647
    282 H          14.4947   30.3036    4.6043 H       1  NAD3011     0.0623
    283 H          11.8305   19.7521    3.1861 H       1  NAD3011     0.0592
    284 H          10.5990   19.4804    1.9851 H       1  NAD3011     0.0592
    285 H          11.8897   22.1186    4.7105 H       1  NAD3011     0.0592
    286 H          13.5216   22.7292    4.7140 H       1  NAD3011     0.0592
    287 H          15.0353   29.5590    6.8719 H       1  NAD3011     0.0630
    288 H          13.6601   27.8340    7.8262 H       1  NAD3011     0.0781
    289 H           7.5546   13.6060    6.8142 H       1  NAD3011     0.1438
    290 H           8.4637   12.4767    7.7120 H       1  NAD3011     0.1438
    291 H          13.0390   26.8609    2.1502 H       1  NAD3011     0.1452
    292 H          13.2536   27.9073    0.8211 H       1  NAD3011     0.1452
    293 H           8.5323   16.5523    3.1979 H       1  NAD3011     0.1030
    294 H          25.4064    8.3901  -18.7607 H       2  NAD3012     0.0866
    295 H          25.9152   -3.7146  -18.5659 H       2  NAD3012     0.0836
    296 H          23.2151    3.4528  -13.3425 H       2  NAD3012     0.2220
    297 H          26.7116   -0.4838  -13.6545 H       2  NAD3012     0.2220
    298 H          26.3974    9.4145  -22.9268 H       2  NAD3012     0.1048
    299 H          22.9414    7.7262  -17.1805 H       2  NAD3012     0.0665
    300 H          24.3074   -2.2928  -16.4008 H       2  NAD3012     0.0663
    301 H          25.9125   -2.5331  -15.0966 H       2  NAD3012     0.0515
    302 H          25.7709   -2.6426  -15.4897 H       2  NAD3012     0.0515
    303 H          24.7839    9.8008  -17.1279 H       2  NAD3012     0.2101
    304 H          23.7074   -4.0124  -18.5145 H       2  NAD3012     0.2101
    305 H          24.4304    7.0223  -15.4382 H       2  NAD3012     0.0647
    306 H          23.4970   -0.7659  -18.0996 H       2  NAD3012     0.0647
    307 H          26.5414    8.3278  -16.7653 H       2  NAD3012     0.2100
    308 H          24.7095   -2.4568  -19.9966 H       2  NAD3012     0.2100
    309 H          26.4757    6.0053  -17.0628 H       2  NAD3012     0.0647
    310 H          25.8616   -0.3270  -19.3149 H       2  NAD3012     0.0647
    311 H          28.3528   -5.7556  -13.8932 H       2  NAD3012     0.0623
    312 H          25.1334    3.9890  -17.4508 H       2  NAD3012     0.0592
    313 H          23.8488    4.7467  -16.5816 H       2  NAD3012     0.0592
    314 H          25.0726    1.1904  -17.7043 H       2  NAD3012     0.0592
    315 H          26.7929    0.9087  -17.5965 H       2  NAD3012     0.0592
    316 H          29.0142   -6.0258  -16.2309 H       2  NAD3012     0.0630
    317 H          27.4501   -5.2366  -17.8966 H       2  NAD3012     0.0781
    318 H          21.4824    8.1860  -23.9464 H       2  NAD3012     0.1438
    319 H          22.6235    8.7408  -25.0857 H       2  NAD3012     0.1438
    320 H          26.4671   -1.6563  -13.4050 H       2  NAD3012     0.1452
    321 H          26.8329   -1.8441  -11.7501 H       2  NAD3012     0.1452
    322 H          21.8476    7.1424  -19.1914 H       2  NAD3012     0.1030
    323 H          18.7376   11.9684  -55.2086 H       3  NAD3013     0.0866
    324 H          19.0325   23.9704  -54.7799 H       3  NAD3013     0.0836
    325 H          24.7321   16.5968  -54.3999 H       3  NAD3013     0.2220
    326 H          22.8728   20.7962  -51.6953 H       3  NAD3013     0.2220
    327 H          14.6652   11.0582  -56.7608 H       3  NAD3013     0.1048
    328 H          21.4156   12.5499  -56.4245 H       3  NAD3013     0.0665
    329 H          21.6176   22.5121  -55.0582 H       3  NAD3013     0.0663
    330 H          22.1653   22.9162  -53.2149 H       3  NAD3013     0.0515
    331 H          22.2714   23.0647  -53.2816 H       3  NAD3013     0.0515
    332 H          20.4314   10.5212  -54.7829 H       3  NAD3013     0.2101
    333 H          20.1075   24.0823  -56.7984 H       3  NAD3013     0.2101
    334 H          22.1494   13.1012  -54.1318 H       3  NAD3013     0.0647
    335 H          20.3521   20.9415  -56.5550 H       3  NAD3013     0.0647
    336 H          19.7320   11.9525  -53.2427 H       3  NAD3013     0.2100
    337 H          18.2675   22.8202  -56.4548 H       3  NAD3013     0.2100
    338 H          19.8163   14.3758  -53.3434 H       3  NAD3013     0.0647
    339 H          18.1544   20.7189  -55.0581 H       3  NAD3013     0.0647
    340 H          21.8475   25.8926  -50.2810 H       3  NAD3013     0.0623
    341 H          20.3625   16.2722  -54.8400 H       3  NAD3013     0.0592
    342 H          21.7238   15.3571  -55.3640 H       3  NAD3013     0.0592
    343 H          19.7668   19.0426  -54.8344 H       3  NAD3013     0.0592
    344 H          19.2364   19.5555  -53.2523 H       3  NAD3013     0.0592
    345 H          19.6453   26.4692  -51.0969 H       3  NAD3013     0.0630
    346 H          18.7326   25.2924  -52.9822 H       3  NAD3013     0.0781
    347 H          16.7570   12.2638  -61.3538 H       3  NAD3013     0.1438
    348 H          15.1711   11.6757  -61.1380 H       3  NAD3013     0.1438
    349 H          23.3017   21.9687  -51.7599 H       3  NAD3013     0.1452
    350 H          24.5794   22.2156  -50.6579 H       3  NAD3013     0.1452
    351 H          20.3948   13.2407  -58.3641 H       3  NAD3013     0.1030
    352 H          56.6426   24.3006   -3.0188 H       4  NAD3014     0.0866
    353 H          61.3511   35.0710   -0.7180 H       4  NAD3014     0.0836
    354 H          55.6304   28.7449    2.9338 H       4  NAD3014     0.2220
    355 H          55.9088   33.7756    0.9775 H       4  NAD3014     0.2220
    356 H          59.0760   23.0103   -6.4868 H       4  NAD3014     0.1048
    357 H          56.8233   24.2570    0.0111 H       4  NAD3014     0.0665
    358 H          59.8092   33.7504    1.4950 H       4  NAD3014     0.0663
    359 H          58.1636   34.9225    1.1075 H       4  NAD3014     0.0515
    360 H          59.2159   36.4272    0.9935 H       4  NAD3014     0.0515
    361 H          55.1518   23.1045   -1.8918 H       4  NAD3014     0.2101
    362 H          62.5146   34.2766    1.0512 H       4  NAD3014     0.2101
    363 H          55.0493   25.8188    0.0050 H       4  NAD3014     0.0647
    364 H          60.8100   31.6233    0.6907 H       4  NAD3014     0.0647
    365 H          54.5174   25.2169   -2.6997 H       4  NAD3014     0.2100
    366 H          62.4451   33.2110   -0.9726 H       4  NAD3014     0.2100
    367 H          55.6914   27.1469   -2.4118 H       4  NAD3014     0.0647
    368 H          60.4646   31.9772   -1.9379 H       4  NAD3014     0.0647
    369 H          57.8535   39.0931    0.8952 H       4  NAD3014     0.0623
    370 H          57.3978   28.4455   -1.2485 H       4  NAD3014     0.0592
    371 H          57.1054   27.4674    0.1582 H       4  NAD3014     0.0592
    372 H          58.8184   30.7483   -1.0558 H       4  NAD3014     0.0592
    373 H          58.0069   32.1220   -1.7850 H       4  NAD3014     0.0592
    374 H          59.1909   39.0178   -1.1756 H       4  NAD3014     0.0630
    375 H          60.7468   37.1693   -1.2863 H       4  NAD3014     0.0781
    376 H          62.5189   21.6409   -2.8551 H       4  NAD3014     0.1438
    377 H          62.7049   21.3673   -4.5279 H       4  NAD3014     0.1438
    378 H          56.4355   34.8450    1.6877 H       4  NAD3014     0.1452
    379 H          55.0754   35.5320    2.4531 H       4  NAD3014     0.1452
    380 H          59.1375   23.8419   -0.2074 H       4  NAD3014     0.1030
    381 H          16.9127   77.6632   10.3238 H       5  NAD3015     0.0866
    382 H          12.3320   67.0549    7.4369 H       5  NAD3015     0.0836
    383 H          18.1891   71.0593   13.4612 H       5  NAD3015     0.2220
    384 H          17.7669   67.4553    9.3613 H       5  NAD3015     0.2220
    385 H          14.2578   80.5651    8.2067 H       5  NAD3015     0.1048
    386 H          16.9341   76.2323   13.0132 H       5  NAD3015     0.0665
    387 H          13.8878   67.3104   10.0249 H       5  NAD3015     0.0663
    388 H          15.6682   66.5041    8.9991 H       5  NAD3015     0.0515
    389 H          16.2285   65.9280    7.7966 H       5  NAD3015     0.0515
    390 H          18.4005   78.2467   11.7574 H       5  NAD3015     0.2101
    391 H          11.2340   66.8187    9.2737 H       5  NAD3015     0.2101
    392 H          18.7572   74.9821   12.1305 H       5  NAD3015     0.0647
    393 H          12.8184   69.4598   10.3005 H       5  NAD3015     0.0647
    394 H          19.0024   76.8550   10.0489 H       5  NAD3015     0.2100
    395 H          11.1925   68.8799    8.0797 H       5  NAD3015     0.2100
    396 H          17.9102   74.8433    9.4845 H       5  NAD3015     0.0647
    397 H          13.1749   70.4002    7.8193 H       5  NAD3015     0.0647
    398 H          15.8166   62.7870    7.0651 H       5  NAD3015     0.0623
    399 H          16.1692   73.1954   10.1109 H       5  NAD3015     0.0592
    400 H          16.6304   73.4549   11.7606 H       5  NAD3015     0.0592
    401 H          14.8102   71.0314    9.2467 H       5  NAD3015     0.0592
    402 H          15.5909   70.3115    7.8448 H       5  NAD3015     0.0592
    403 H          14.4843   63.7883    5.2261 H       5  NAD3015     0.0630
    404 H          12.9426   65.5027    5.9571 H       5  NAD3015     0.0781
    405 H          11.1604   79.7328   12.2943 H       5  NAD3015     0.1438
    406 H          10.8373   80.8730   11.0682 H       5  NAD3015     0.1438
    407 H          17.3811   66.1293    9.6379 H       5  NAD3015     0.1452
    408 H          18.6826   65.0872    9.9957 H       5  NAD3015     0.1452
    409 H          14.6372   76.5813   13.1283 H       5  NAD3015     0.1030
    410 H          37.5251   68.9920  -39.6941 H       6  NAD3016     0.0866
    411 H          36.9212   58.8458  -45.5131 H       6  NAD3016     0.0836
    412 H          31.5811   64.9860  -41.5919 H       6  NAD3016     0.2220
    413 H          32.9995   59.7050  -41.2186 H       6  NAD3016     0.2220
    414 H          41.6181   70.5371  -40.3195 H       6  NAD3016     0.1048
    415 H          34.8608   69.1284  -41.1390 H       6  NAD3016     0.0665
    416 H          35.9355   61.6117  -45.8518 H       6  NAD3016     0.0663
    417 H          34.2282   57.9936  -44.1339 H       6  NAD3016     0.0515
    418 H          34.8118   57.8996  -44.4334 H       6  NAD3016     0.0515
    419 H          35.7845   70.2515  -38.8016 H       6  NAD3016     0.2101
    420 H          38.3550   60.4109  -46.6727 H       6  NAD3016     0.2101
    421 H          34.1102   67.5180  -39.5480 H       6  NAD3016     0.0647
    422 H          37.8894   62.5285  -44.5398 H       6  NAD3016     0.0647
    423 H          36.3771   68.0130  -37.9525 H       6  NAD3016     0.2100
    424 H          39.1202   60.0716  -44.6675 H       6  NAD3016     0.2100
    425 H          36.5567   66.1258  -39.2495 H       6  NAD3016     0.0647
    426 H          37.7346   60.6664  -42.5686 H       6  NAD3016     0.0647
    427 H          31.8887   57.8376  -47.5967 H       6  NAD3016     0.0623
    428 H          36.1342   64.8765  -41.2292 H       6  NAD3016     0.0592
    429 H          34.8510   65.9634  -41.6504 H       6  NAD3016     0.0592
    430 H          36.0960   62.8401  -43.2237 H       6  NAD3016     0.0592
    431 H          36.4471   62.1508  -41.6641 H       6  NAD3016     0.0592
    432 H          32.9777   59.8507  -48.3586 H       6  NAD3016     0.0630
    433 H          35.0724   60.4906  -47.3575 H       6  NAD3016     0.0781
    434 H          39.8670   71.9214  -44.9994 H       6  NAD3016     0.1438
    435 H          41.4264   72.2549  -44.3953 H       6  NAD3016     0.1438
    436 H          33.8218   55.3344  -47.1007 H       6  NAD3016     0.1452
    437 H          32.7753   54.2508  -46.3017 H       6  NAD3016     0.1452
    438 H          36.0386   69.5459  -43.1406 H       6  NAD3016     0.1030
@<TRIPOS>BOND
     1     1     7    1
     2     1    13    2
     3     1    21    1
     4     1    34    1
     5     2     8    1
     6     2    16    2
     7     2    35    1
     8     3    44    1
     9     4     6    1
    10     5     9   ar
    11     6    12    1
    12     6    37    1
    13     9    20   ar
    14     3    10    1
    15    10    14    1
    16     4    11    1
    17    11    15    1
    18    12    19    1
    19    10    17    1
    20    17    22    1
    21    11    18    1
    22    18    23    1
    23    19    27    2
    24    19    39    1
    25    20    24   ar
    26     2    21    1
    27    17    25    1
    28    25    28    1
    29    18    26    1
    30    26    29    1
    31    27    33    1
    32     3    28    1
    33     4    29    1
    34    24    30   ar
    35    30    36   ar
    36    25    31    1
    37    26    32    1
    38    33    37    2
    39    31    34    1
    40    32    35    1
    41     5    36   ar
    42    36    38    1
    43    39    41   am
    44    39    42    2
    45    30    40   ar
    46    40    43   ar
    47    24    44   ar
    48    43    44   ar
    49    45    51    1
    50    45    57    2
    51    45    65    1
    52    45    78    1
    53    46    52    1
    54    46    60    2
    55    46    79    1
    56    47    88    1
    57    48    50    1
    58    49    53   ar
    59    50    56    1
    60    50    81    1
    61    53    64   ar
    62    47    54    1
    63    54    58    1
    64    48    55    1
    65    55    59    1
    66    56    63    1
    67    54    61    1
    68    61    66    1
    69    55    62    1
    70    62    67    1
    71    63    71    2
    72    63    83    1
    73    64    68   ar
    74    46    65    1
    75    61    69    1
    76    69    72    1
    77    62    70    1
    78    70    73    1
    79    71    77    1
    80    47    72    1
    81    48    73    1
    82    68    74   ar
    83    74    80   ar
    84    69    75    1
    85    70    76    1
    86    77    81    2
    87    75    78    1
    88    76    79    1
    89    49    80   ar
    90    80    82    1
    91    83    85   am
    92    83    86    2
    93    74    84   ar
    94    84    87   ar
    95    68    88   ar
    96    87    88   ar
    97    89    95    1
    98    89   101    2
    99    89   109    1
   100    89   122    1
   101    90    96    1
   102    90   104    2
   103    90   123    1
   104    91   132    1
   105    92    94    1
   106    93    97   ar
   107    94   100    1
   108    94   125    1
   109    97   108   ar
   110    91    98    1
   111    98   102    1
   112    92    99    1
   113    99   103    1
   114   100   107    1
   115    98   105    1
   116   105   110    1
   117    99   106    1
   118   106   111    1
   119   107   115    2
   120   107   127    1
   121   108   112   ar
   122    90   109    1
   123   105   113    1
   124   113   116    1
   125   106   114    1
   126   114   117    1
   127   115   121    1
   128    91   116    1
   129    92   117    1
   130   112   118   ar
   131   118   124   ar
   132   113   119    1
   133   114   120    1
   134   121   125    2
   135   119   122    1
   136   120   123    1
   137    93   124   ar
   138   124   126    1
   139   127   129   am
   140   127   130    2
   141   118   128   ar
   142   128   131   ar
   143   112   132   ar
   144   131   132   ar
   145   133   139    1
   146   133   145    2
   147   133   153    1
   148   133   166    1
   149   134   140    1
   150   134   148    2
   151   134   167    1
   152   135   176    1
   153   136   138    1
   154   137   141   ar
   155   138   144    1
   156   138   169    1
   157   141   152   ar
   158   135   142    1
   159   142   146    1
   160   136   143    1
   161   143   147    1
   162   144   151    1
   163   142   149    1
   164   149   154    1
   165   143   150    1
   166   150   155    1
   167   151   159    2
   168   151   171    1
   169   152   156   ar
   170   134   153    1
   171   149   157    1
   172   157   160    1
   173   150   158    1
   174   158   161    1
   175   159   165    1
   176   135   160    1
   177   136   161    1
   178   156   162   ar
   179   162   168   ar
   180   157   163    1
   181   158   164    1
   182   165   169    2
   183   163   166    1
   184   164   167    1
   185   137   168   ar
   186   168   170    1
   187   171   173   am
   188   171   174    2
   189   162   172   ar
   190   172   175   ar
   191   156   176   ar
   192   175   176   ar
   193   177   183    1
   194   177   189    2
   195   177   197    1
   196   177   210    1
   197   178   184    1
   198   178   192    2
   199   178   211    1
   200   179   220    1
   201   180   182    1
   202   181   185   ar
   203   182   188    1
   204   182   213    1
   205   185   196   ar
   206   179   186    1
   207   186   190    1
   208   180   187    1
   209   187   191    1
   210   188   195    1
   211   186   193    1
   212   193   198    1
   213   187   194    1
   214   194   199    1
   215   195   203    2
   216   195   215    1
   217   196   200   ar
   218   178   197    1
   219   193   201    1
   220   201   204    1
   221   194   202    1
   222   202   205    1
   223   203   209    1
   224   179   204    1
   225   180   205    1
   226   200   206   ar
   227   206   212   ar
   228   201   207    1
   229   202   208    1
   230   209   213    2
   231   207   210    1
   232   208   211    1
   233   181   212   ar
   234   212   214    1
   235   215   217   am
   236   215   218    2
   237   206   216   ar
   238   216   219   ar
   239   200   220   ar
   240   219   220   ar
   241   221   227    1
   242   221   233    2
   243   221   241    1
   244   221   254    1
   245   222   228    1
   246   222   236    2
   247   222   255    1
   248   223   264    1
   249   224   226    1
   250   225   229   ar
   251   226   232    1
   252   226   257    1
   253   229   240   ar
   254   223   230    1
   255   230   234    1
   256   224   231    1
   257   231   235    1
   258   232   239    1
   259   230   237    1
   260   237   242    1
   261   231   238    1
   262   238   243    1
   263   239   247    2
   264   239   259    1
   265   240   244   ar
   266   222   241    1
   267   237   245    1
   268   245   248    1
   269   238   246    1
   270   246   249    1
   271   247   253    1
   272   223   248    1
   273   224   249    1
   274   244   250   ar
   275   250   256   ar
   276   245   251    1
   277   246   252    1
   278   253   257    2
   279   251   254    1
   280   252   255    1
   281   225   256   ar
   282   256   258    1
   283   259   261   am
   284   259   262    2
   285   250   260   ar
   286   260   263   ar
   287   244   264   ar
   288   263   264   ar
   289     3   265    1
   290     4   266    1
   291     7   267    1
   292     8   268    1
   293     9   269    1
   294    10   270    1
   295    11   271    1
   296    12   272    1
   297    12   273    1
   298    14   274    1
   299    15   275    1
   300    17   276    1
   301    18   277    1
   302    22   278    1
   303    23   279    1
   304    25   280    1
   305    26   281    1
   306    27   282    1
   307    31   283    1
   308    31   284    1
   309    32   285    1
   310    32   286    1
   311    33   287    1
   312    37   288    1
   313    38   289    1
   314    38   290    1
   315    41   291    1
   316    41   292    1
   317    43   293    1
   318    47   294    1
   319    48   295    1
   320    51   296    1
   321    52   297    1
   322    53   298    1
   323    54   299    1
   324    55   300    1
   325    56   301    1
   326    56   302    1
   327    58   303    1
   328    59   304    1
   329    61   305    1
   330    62   306    1
   331    66   307    1
   332    67   308    1
   333    69   309    1
   334    70   310    1
   335    71   311    1
   336    75   312    1
   337    75   313    1
   338    76   314    1
   339    76   315    1
   340    77   316    1
   341    81   317    1
   342    82   318    1
   343    82   319    1
   344    85   320    1
   345    85   321    1
   346    87   322    1
   347    91   323    1
   348    92   324    1
   349    95   325    1
   350    96   326    1
   351    97   327    1
   352    98   328    1
   353    99   329    1
   354   100   330    1
   355   100   331    1
   356   102   332    1
   357   103   333    1
   358   105   334    1
   359   106   335    1
   360   110   336    1
   361   111   337    1
   362   113   338    1
   363   114   339    1
   364   115   340    1
   365   119   341    1
   366   119   342    1
   367   120   343    1
   368   120   344    1
   369   121   345    1
   370   125   346    1
   371   126   347    1
   372   126   348    1
   373   129   349    1
   374   129   350    1
   375   131   351    1
   376   135   352    1
   377   136   353    1
   378   139   354    1
   379   140   355    1
   380   141   356    1
   381   142   357    1
   382   143   358    1
   383   144   359    1
   384   144   360    1
   385   146   361    1
   386   147   362    1
   387   149   363    1
   388   150   364    1
   389   154   365    1
   390   155   366    1
   391   157   367    1
   392   158   368    1
   393   159   369    1
   394   163   370    1
   395   163   371    1
   396   164   372    1
   397   164   373    1
   398   165   374    1
   399   169   375    1
   400   170   376    1
   401   170   377    1
   402   173   378    1
   403   173   379    1
   404   175   380    1
   405   179   381    1
   406   180   382    1
   407   183   383    1
   408   184   384    1
   409   185   385    1
   410   186   386    1
   411   187   387    1
   412   188   388    1
   413   188   389    1
   414   190   390    1
   415   191   391    1
   416   193   392    1
   417   194   393    1
   418   198   394    1
   419   199   395    1
   420   201   396    1
   421   202   397    1
   422   203   398    1
   423   207   399    1
   424   207   400    1
   425   208   401    1
   426   208   402    1
   427   209   403    1
   428   213   404    1
   429   214   405    1
   430   214   406    1
   431   217   407    1
   432   217   408    1
   433   219   409    1
   434   223   410    1
   435   224   411    1
   436   227   412    1
   437   228   413    1
   438   229   414    1
   439   230   415    1
   440   231   416    1
   441   232   417    1
   442   232   418    1
   443   234   419    1
   444   235   420    1
   445   237   421    1
   446   238   422    1
   447   242   423    1
   448   243   424    1
   449   245   425    1
   450   246   426    1
   451   247   427    1
   452   251   428    1
   453   251   429    1
   454   252   430    1
   455   252   431    1
   456   253   432    1
   457   257   433    1
   458   258   434    1
   459   258   435    1
   460   261   436    1
   461   261   437    1
   462   263   438    1
