# created with PyMOL 3.1.0
@<TRIPOS>MOLECULE
9fbd
264 288 6               
SMALL
USER_CHARGES
@<TRIPOS>ATOM
1	  PA	11.678	21.600	0.585	P.3	1	NAD301	0.000	
2	  PN	12.631	23.735	2.318	P.3	1	NAD301	0.000	
3	 C1B	11.258	15.988	2.552	C.3	1	NAD301	0.000	
4	 C1D	12.316	25.929	6.629	C.3	1	NAD301	0.000	
5	 N1A	10.618	12.724	6.436	N.2	1	NAD301	0.000	
6	 N1N	12.929	27.140	6.015	N.2	1	NAD301	0.000	
7	 O1A	10.291	21.205	0.198	O.co2	1	NAD301	0.000	
8	 O1N	12.434	25.014	1.649	O.co2	1	NAD301	0.000	
9	 C2A	11.659	12.964	5.637	C.2	1	NAD301	0.000	
10	 C2B	10.757	16.233	1.127	C.3	1	NAD301	0.000	
11	 C2D	10.910	25.600	6.112	C.3	1	NAD301	0.000	
12	 C2N	12.859	27.380	4.653	C.2	1	NAD301	0.000	
13	 O2A	12.588	22.151	-0.473	O.co2	1	NAD301	0.000	
14	 O2B	10.883	15.042	0.376	O.3	1	NAD301	0.000	
15	 O2D	9.995	26.409	6.838	O.3	1	NAD301	0.000	
16	 O2N	13.951	23.020	2.285	O.co2	1	NAD301	0.000	
17	 C3B	11.762	17.309	0.672	C.3	1	NAD301	0.000	
18	 C3D	10.834	24.114	6.471	C.3	1	NAD301	0.000	
19	 C3N	13.484	28.502	4.111	C.2	1	NAD301	0.000	
20	 N3A	11.757	13.836	4.636	N.2	1	NAD301	0.000	
21	  O3	11.565	22.662	1.788	O.3	1	NAD301	0.000	
22	 O3B	12.913	16.722	0.071	O.3	1	NAD301	0.000	
23	 O3D	10.517	23.943	7.855	O.3	1	NAD301	0.000	
24	 C4A	10.599	14.481	4.454	C.2	1	NAD301	0.000	
25	 C4B	12.163	18.043	1.975	C.3	1	NAD301	0.000	
26	 C4D	12.255	23.610	6.183	C.3	1	NAD301	0.000	
27	 C4N	14.157	29.396	4.961	C.2	1	NAD301	0.000	
28	 O4B	11.645	17.245	3.055	O.3	1	NAD301	0.000	
29	 O4D	13.108	24.778	6.321	O.3	1	NAD301	0.000	
30	 C5A	9.438	14.312	5.177	C.2	1	NAD301	0.000	
31	 C5B	11.651	19.445	2.177	C.3	1	NAD301	0.000	
32	 C5D	12.491	22.997	4.819	C.3	1	NAD301	0.000	
33	 C5N	14.361	29.041	6.287	C.2	1	NAD301	0.000	
34	 O5B	12.349	20.329	1.267	O.3	1	NAD301	0.000	
35	 O5D	12.136	23.942	3.827	O.3	1	NAD301	0.000	
36	 C6A	9.459	13.373	6.212	C.2	1	NAD301	0.000	
37	 C6N	13.650	27.989	6.806	C.2	1	NAD301	0.000	
38	 N6A	8.401	13.131	6.979	N.pl3	1	NAD301	0.000	
39	 C7N	13.449	28.773	2.628	C.2	1	NAD301	0.000	
40	 N7A	8.441	15.151	4.719	N.2	1	NAD301	0.000	
41	 N7N	13.228	27.759	1.794	N.pl3	1	NAD301	0.000	
42	 O7N	13.689	29.911	2.252	O.2	1	NAD301	0.000	
43	 C8A	9.012	15.816	3.739	C.2	1	NAD301	0.000	
44	 N9A	10.311	15.433	3.507	N.2	1	NAD301	0.000	
45	  PA	24.994	3.594	-14.300	P.3	2	NAD301	0.000	
46	  PN	26.137	0.997	-14.915	P.3	2	NAD301	0.000	
47	 C1B	24.609	7.691	-18.618	C.3	2	NAD301	0.000	
48	 C1D	25.931	-3.032	-17.742	C.3	2	NAD301	0.000	
49	 N1A	24.545	8.980	-23.562	N.2	2	NAD301	0.000	
50	 N1N	26.616	-3.776	-16.640	N.2	2	NAD301	0.000	
51	 O1A	23.578	3.975	-14.075	O.co2	2	NAD301	0.000	
52	 O1N	26.015	0.191	-13.672	O.co2	2	NAD301	0.000	
53	 C2A	25.485	9.045	-22.617	C.2	2	NAD301	0.000	
54	 C2B	23.965	8.019	-17.287	C.3	2	NAD301	0.000	
55	 C2D	24.495	-2.588	-17.412	C.3	2	NAD301	0.000	
56	 C2N	26.506	-3.347	-15.321	C.2	2	NAD301	0.000	
57	 O2A	25.960	3.699	-13.179	O.co2	2	NAD301	0.000	
58	 O2B	23.896	9.417	-17.056	O.3	2	NAD301	0.000	
59	 O2D	23.607	-3.674	-17.611	O.3	2	NAD301	0.000	
60	 O2N	27.427	1.691	-15.232	O.co2	2	NAD301	0.000	
61	 C3B	24.927	7.281	-16.350	C.3	2	NAD301	0.000	
62	 C3D	24.305	-1.411	-18.375	C.3	2	NAD301	0.000	
63	 C3N	27.188	-4.004	-14.301	C.2	2	NAD301	0.000	
64	 N3A	25.416	8.702	-21.332	N.2	2	NAD301	0.000	
65	  O3	24.974	2.113	-14.930	O.3	2	NAD301	0.000	
66	 O3B	26.050	8.063	-15.972	O.3	2	NAD301	0.000	
67	 O3D	24.006	-1.863	-19.691	O.3	2	NAD301	0.000	
68	 C4A	24.198	8.251	-21.020	C.2	2	NAD301	0.000	
69	 C4B	25.414	6.079	-17.174	C.3	2	NAD301	0.000	
70	 C4D	25.682	-0.744	-18.346	C.3	2	NAD301	0.000	
71	 C4N	27.977	-5.142	-14.633	C.2	2	NAD301	0.000	
72	 O4B	24.985	6.333	-18.530	O.3	2	NAD301	0.000	
73	 O4D	26.641	-1.794	-17.991	O.3	2	NAD301	0.000	
74	 C5A	23.115	8.156	-21.872	C.2	2	NAD301	0.000	
75	 C5B	24.910	4.736	-16.718	C.3	2	NAD301	0.000	
76	 C5D	25.826	0.473	-17.454	C.3	2	NAD301	0.000	
77	 C5N	28.230	-5.409	-15.967	C.2	2	NAD301	0.000	
78	 O5B	25.586	4.444	-15.493	O.3	2	NAD301	0.000	
79	 O5D	25.679	0.089	-16.120	O.3	2	NAD301	0.000	
80	 C6A	23.314	8.558	-23.207	C.2	2	NAD301	0.000	
81	 C6N	27.436	-4.852	-16.939	C.2	2	NAD301	0.000	
82	 N6A	22.394	8.489	-24.162	N.pl3	2	NAD301	0.000	
83	 C7N	27.167	-3.479	-12.888	C.2	2	NAD301	0.000	
84	 N7A	22.031	7.637	-21.188	N.2	2	NAD301	0.000	
85	 N7N	26.789	-2.215	-12.661	N.pl3	2	NAD301	0.000	
86	 O7N	27.574	-4.219	-12.008	O.2	2	NAD301	0.000	
87	 C8A	22.447	7.486	-19.958	C.2	2	NAD301	0.000	
88	 N9A	23.767	7.833	-19.793	N.2	2	NAD301	0.000	
89	  PA	23.047	16.616	-53.299	P.3	3	NAD301	0.000	
90	  PN	21.986	19.290	-52.744	P.3	3	NAD301	0.000	
91	 C1B	19.333	12.657	-55.771	C.3	3	NAD301	0.000	
92	 C1D	19.712	23.281	-54.324	C.3	3	NAD301	0.000	
93	 N1A	15.239	11.442	-58.655	N.2	3	NAD301	0.000	
94	 N1N	20.366	24.012	-53.215	N.2	3	NAD301	0.000	
95	 O1A	23.892	16.112	-54.391	O.co2	3	NAD301	0.000	
96	 O1N	23.171	20.078	-52.275	O.co2	3	NAD301	0.000	
97	 C2A	15.457	11.396	-57.330	C.2	3	NAD301	0.000	
98	 C2B	20.792	12.262	-55.604	C.3	3	NAD301	0.000	
99	 C2D	20.647	22.787	-55.415	C.3	3	NAD301	0.000	
100	 C2N	21.618	23.649	-52.737	C.2	3	NAD301	0.000	
101	 O2A	23.505	16.656	-51.883	O.co2	3	NAD301	0.000	
102	 O2B	20.969	10.868	-55.512	O.3	3	NAD301	0.000	
103	 O2D	20.936	23.764	-56.407	O.3	3	NAD301	0.000	
104	 O2N	21.116	18.709	-51.672	O.co2	3	NAD301	0.000	
105	 C3B	21.101	12.933	-54.264	C.3	3	NAD301	0.000	
106	 C3D	19.787	21.657	-55.995	C.3	3	NAD301	0.000	
107	 C3N	22.124	24.277	-51.617	C.2	3	NAD301	0.000	
108	 N3A	16.557	11.727	-56.647	N.2	3	NAD301	0.000	
109	  O3	22.499	18.110	-53.699	O.3	3	NAD301	0.000	
110	 O3B	20.682	12.133	-53.167	O.3	3	NAD301	0.000	
111	 O3D	18.819	22.160	-56.903	O.3	3	NAD301	0.000	
112	 C4A	17.535	12.148	-57.469	C.2	3	NAD301	0.000	
113	 C4B	20.251	14.216	-54.308	C.3	3	NAD301	0.000	
114	 C4D	19.118	21.063	-54.745	C.3	3	NAD301	0.000	
115	 C4N	21.428	25.357	-51.057	C.2	3	NAD301	0.000	
116	 O4B	19.267	14.000	-55.347	O.3	3	NAD301	0.000	
117	 O4D	19.112	22.110	-53.754	O.3	3	NAD301	0.000	
118	 C5A	17.453	12.257	-58.842	C.2	3	NAD301	0.000	
119	 C5B	21.025	15.479	-54.563	C.3	3	NAD301	0.000	
120	 C5D	19.774	19.848	-54.130	C.3	3	NAD301	0.000	
121	 C5N	20.181	25.707	-51.541	C.2	3	NAD301	0.000	
122	 O5B	21.686	15.789	-53.330	O.3	3	NAD301	0.000	
123	 O5D	21.139	20.170	-53.778	O.3	3	NAD301	0.000	
124	 C6A	16.241	11.882	-59.450	C.2	3	NAD301	0.000	
125	 C6N	19.662	25.032	-52.617	C.2	3	NAD301	0.000	
126	 N6A	16.039	11.946	-60.760	N.pl3	3	NAD301	0.000	
127	 C7N	23.396	23.808	-50.962	C.2	3	NAD301	0.000	
128	 N7A	18.652	12.727	-59.360	N.2	3	NAD301	0.000	
129	 N7N	23.793	22.557	-51.142	N.pl3	3	NAD301	0.000	
130	 O7N	23.966	24.580	-50.210	O.2	3	NAD301	0.000	
131	 C8A	19.423	12.898	-58.307	C.2	3	NAD301	0.000	
132	 N9A	18.805	12.575	-57.127	N.2	3	NAD301	0.000	
133	  PA	55.330	29.276	1.001	P.3	4	NAD301	0.000	
134	  PN	56.452	31.893	0.439	P.3	4	NAD301	0.000	
135	 C1B	57.181	24.628	-2.154	C.3	4	NAD301	0.000	
136	 C1D	60.396	34.694	-0.417	C.3	4	NAD301	0.000	
137	 N1A	60.560	22.391	-5.278	N.2	4	NAD301	0.000	
138	 N1N	59.550	35.893	-0.148	N.2	4	NAD301	0.000	
139	 O1A	55.742	28.326	2.066	O.co2	4	NAD301	0.000	
140	 O1N	55.908	32.900	1.395	O.co2	4	NAD301	0.000	
141	 C2A	59.380	22.981	-5.501	C.2	4	NAD301	0.000	
142	 C2B	56.319	24.360	-0.927	C.3	4	NAD301	0.000	
143	 C2D	60.621	33.787	0.799	C.3	4	NAD301	0.000	
144	 C2N	58.437	35.824	0.686	C.2	4	NAD301	0.000	
145	 O2A	54.032	30.015	1.005	O.co2	4	NAD301	0.000	
146	 O2B	55.649	23.117	-1.059	O.3	4	NAD301	0.000	
147	 O2D	61.718	34.212	1.601	O.3	4	NAD301	0.000	
148	 O2N	55.828	31.841	-0.922	O.co2	4	NAD301	0.000	
149	 C3B	55.403	25.596	-0.980	C.3	4	NAD301	0.000	
150	 C3D	60.935	32.480	0.062	C.3	4	NAD301	0.000	
151	 C3N	57.689	36.976	0.953	C.2	4	NAD301	0.000	
152	 N3A	58.545	23.535	-4.626	N.2	4	NAD301	0.000	
153	  O3	56.490	30.413	1.041	O.3	4	NAD301	0.000	
154	 O3B	54.247	25.422	-1.791	O.3	4	NAD301	0.000	
155	 O3D	62.282	32.449	-0.395	O.3	4	NAD301	0.000	
156	 C4A	59.025	23.439	-3.372	C.2	4	NAD301	0.000	
157	 C4B	56.272	26.688	-1.639	C.3	4	NAD301	0.000	
158	 C4D	59.986	32.516	-1.147	C.3	4	NAD301	0.000	
159	 C4N	58.177	38.205	0.481	C.2	4	NAD301	0.000	
160	 O4B	57.463	26.007	-2.095	O.3	4	NAD301	0.000	
161	 O4D	59.754	33.901	-1.414	O.3	4	NAD301	0.000	
162	 C5A	60.213	22.854	-2.984	C.2	4	NAD301	0.000	
163	 C5B	56.674	27.836	-0.749	C.3	4	NAD301	0.000	
164	 C5D	58.660	31.805	-0.999	C.3	4	NAD301	0.000	
165	 C5N	59.099	38.203	-0.549	C.2	4	NAD301	0.000	
166	 O5B	55.503	28.610	-0.462	O.3	4	NAD301	0.000	
167	 O5D	58.044	32.133	0.293	O.3	4	NAD301	0.000	
168	 C6A	61.005	22.298	-4.000	C.2	4	NAD301	0.000	
169	 C6N	59.887	37.098	-0.720	C.2	4	NAD301	0.000	
170	 N6A	62.177	21.719	-3.775	N.pl3	4	NAD301	0.000	
171	 C7N	56.404	36.853	1.729	C.2	4	NAD301	0.000	
172	 N7A	60.371	22.942	-1.605	N.2	4	NAD301	0.000	
173	 N7N	55.931	35.639	1.978	N.pl3	4	NAD301	0.000	
174	 O7N	55.815	37.869	2.069	O.2	4	NAD301	0.000	
175	 C8A	59.307	23.591	-1.194	C.2	4	NAD301	0.000	
176	 N9A	58.440	23.902	-2.219	N.2	4	NAD301	0.000	
177	  PA	18.390	71.462	11.502	P.3	5	NAD301	0.000	
178	  PN	17.280	69.375	9.788	P.3	5	NAD301	0.000	
179	 C1B	16.430	76.944	10.952	C.3	5	NAD301	0.000	
180	 C1D	13.283	67.271	7.877	C.3	5	NAD301	0.000	
181	 N1A	12.887	80.457	9.684	N.2	5	NAD301	0.000	
182	 N1N	14.132	66.099	7.569	N.2	5	NAD301	0.000	
183	 O1A	18.015	71.813	12.876	O.co2	5	NAD301	0.000	
184	 O1N	17.799	68.030	10.142	O.co2	5	NAD301	0.000	
185	 C2A	14.031	80.073	9.085	C.2	5	NAD301	0.000	
186	 C2B	17.360	76.626	12.114	C.3	5	NAD301	0.000	
187	 C2D	13.072	67.523	9.366	C.3	5	NAD301	0.000	
188	 C2N	15.326	65.838	8.289	C.2	5	NAD301	0.000	
189	 O2A	19.709	70.849	11.144	O.co2	5	NAD301	0.000	
190	 O2B	17.984	77.821	12.523	O.3	5	NAD301	0.000	
191	 O2D	12.020	66.684	9.826	O.3	5	NAD301	0.000	
192	 O2N	17.866	70.120	8.625	O.co2	5	NAD301	0.000	
193	 C3B	18.291	75.629	11.417	C.3	5	NAD301	0.000	
194	 C3D	12.717	69.010	9.335	C.3	5	NAD301	0.000	
195	 C3N	16.028	64.665	8.019	C.2	5	NAD301	0.000	
196	 N3A	14.914	79.145	9.467	N.2	5	NAD301	0.000	
197	  O3	17.290	70.393	10.999	O.3	5	NAD301	0.000	
198	 O3B	19.361	76.250	10.717	O.3	5	NAD301	0.000	
199	 O3D	11.360	69.263	8.955	O.3	5	NAD301	0.000	
200	 C4A	14.531	78.557	10.619	C.2	5	NAD301	0.000	
201	 C4B	17.367	74.922	10.403	C.3	5	NAD301	0.000	
202	 C4D	13.663	69.553	8.254	C.3	5	NAD301	0.000	
203	 C4N	15.512	63.773	7.076	C.2	5	NAD301	0.000	
204	 O4B	16.167	75.715	10.346	O.3	5	NAD301	0.000	
205	 O4D	13.902	68.452	7.351	O.3	5	NAD301	0.000	
206	 C5A	13.388	78.833	11.338	C.2	5	NAD301	0.000	
207	 C5B	16.968	73.515	10.747	C.3	5	NAD301	0.000	
208	 C5D	14.987	70.124	8.708	C.3	5	NAD301	0.000	
209	 C5N	14.580	64.236	6.151	C.2	5	NAD301	0.000	
210	 O5B	18.106	72.691	10.548	O.3	5	NAD301	0.000	
211	 O5D	15.682	69.200	9.560	O.3	5	NAD301	0.000	
212	 C6A	12.543	79.838	10.842	C.2	5	NAD301	0.000	
213	 C6N	13.796	65.298	6.500	C.2	5	NAD301	0.000	
214	 N6A	11.417	80.177	11.454	N.pl3	5	NAD301	0.000	
215	 C7N	17.318	64.344	8.731	C.2	5	NAD301	0.000	
216	 N7A	13.318	78.034	12.474	N.2	5	NAD301	0.000	
217	 N7N	17.838	65.265	9.522	N.pl3	5	NAD301	0.000	
218	 O7N	17.838	63.253	8.547	O.2	5	NAD301	0.000	
219	 C8A	14.396	77.291	12.419	C.2	5	NAD301	0.000	
220	 N9A	15.169	77.557	11.319	N.2	5	NAD301	0.000	
221	  PA	33.089	64.311	-40.396	P.3	6	NAD301	0.000	
222	  PN	33.939	61.525	-41.227	P.3	6	NAD301	0.000	
223	 C1B	36.964	68.718	-40.563	C.3	6	NAD301	0.000	
224	 C1D	36.278	59.629	-45.170	C.3	6	NAD301	0.000	
225	 N1A	41.169	71.188	-42.169	N.2	6	NAD301	0.000	
226	 N1N	34.926	59.227	-45.724	N.2	6	NAD301	0.000	
227	 O1A	32.448	65.315	-41.307	O.co2	6	NAD301	0.000	
228	 O1N	32.724	60.632	-41.294	O.co2	6	NAD301	0.000	
229	 C2A	40.867	70.553	-41.027	C.2	6	NAD301	0.000	
230	 C2B	35.489	68.990	-40.284	C.3	6	NAD301	0.000	
231	 C2D	36.787	60.997	-45.647	C.3	6	NAD301	0.000	
232	 C2N	34.129	58.228	-45.134	C.2	6	NAD301	0.000	
233	 O2A	32.323	63.804	-39.204	O.co2	6	NAD301	0.000	
234	 O2B	35.266	70.226	-39.621	O.3	6	NAD301	0.000	
235	 O2D	37.571	60.962	-46.823	O.3	6	NAD301	0.000	
236	 O2N	34.894	61.428	-40.063	O.co2	6	NAD301	0.000	
237	 C3B	35.158	67.722	-39.474	C.3	6	NAD301	0.000	
238	 C3D	37.733	61.470	-44.539	C.3	6	NAD301	0.000	
239	 C3N	33.189	57.554	-45.947	C.2	6	NAD301	0.000	
240	 N3A	39.739	69.940	-40.673	N.2	6	NAD301	0.000	
241	  O3	33.474	63.067	-41.353	O.3	6	NAD301	0.000	
242	 O3B	35.434	67.827	-38.082	O.3	6	NAD301	0.000	
243	 O3D	39.088	61.041	-44.654	O.3	6	NAD301	0.000	
244	 C4A	38.824	70.008	-41.654	C.2	6	NAD301	0.000	
245	 C4B	36.090	66.644	-40.061	C.3	6	NAD301	0.000	
246	 C4D	37.006	60.926	-43.308	C.3	6	NAD301	0.000	
247	 C4N	32.714	58.204	-47.097	C.2	6	NAD301	0.000	
248	 O4B	37.024	67.351	-40.913	O.3	6	NAD301	0.000	
249	 O4D	36.227	59.773	-43.746	O.3	6	NAD301	0.000	
250	 C5A	38.977	70.626	-42.883	C.2	6	NAD301	0.000	
251	 C5B	35.407	65.554	-40.833	C.3	6	NAD301	0.000	
252	 C5D	36.100	61.935	-42.653	C.3	6	NAD301	0.000	
253	 C5N	33.352	59.327	-47.552	C.2	6	NAD301	0.000	
254	 O5B	34.532	64.859	-39.922	O.3	6	NAD301	0.000	
255	 O5D	34.763	61.387	-42.599	O.3	6	NAD301	0.000	
256	 C6A	40.222	71.247	-43.137	C.2	6	NAD301	0.000	
257	 C6N	34.506	59.750	-46.915	C.2	6	NAD301	0.000	
258	 N6A	40.532	71.861	-44.276	N.pl3	6	NAD301	0.000	
259	 C7N	32.679	56.155	-45.665	C.2	6	NAD301	0.000	
260	 N7A	37.812	70.490	-43.636	N.2	6	NAD301	0.000	
261	 N7N	33.131	55.161	-46.421	N.pl3	6	NAD301	0.000	
262	 O7N	31.819	55.981	-44.807	O.2	6	NAD301	0.000	
263	 C8A	36.996	69.813	-42.863	C.2	6	NAD301	0.000	
264	 N9A	37.550	69.496	-41.643	N.2	6	NAD301	0.000	
@<TRIPOS>BOND
1 1 7 1
2 1 13 2
3 1 21 1
4 1 34 1
5 2 8 1
6 2 16 2
7 2 35 1
8 3 44 1
9 4 6 1
10 5 9 ar
11 6 12 ar
12 6 37 ar
13 9 20 ar
14 3 10 1
15 10 14 1
16 4 11 1
17 11 15 1
18 12 19 ar
19 10 17 1
20 17 22 1
21 11 18 1
22 18 23 1
23 19 27 ar
24 19 39 1
25 20 24 ar
26 2 21 1
27 17 25 1
28 25 28 1
29 18 26 1
30 26 29 1
31 27 33 ar
32 3 28 1
33 4 29 1
34 24 30 ar
35 30 36 ar
36 25 31 1
37 26 32 1
38 33 37 ar
39 31 34 1
40 32 35 1
41 5 36 ar
42 36 38 1
43 39 41 1
44 39 42 2
45 30 40 ar
46 40 43 ar
47 24 44 ar
48 43 44 ar
49 45 51 1
50 45 57 2
51 45 65 1
52 45 78 1
53 46 52 1
54 46 60 2
55 46 79 1
56 47 88 1
57 48 50 1
58 49 53 ar
59 50 56 ar
60 50 81 ar
61 53 64 ar
62 47 54 1
63 54 58 1
64 48 55 1
65 55 59 1
66 56 63 ar
67 54 61 1
68 61 66 1
69 55 62 1
70 62 67 1
71 63 71 ar
72 63 83 1
73 64 68 ar
74 46 65 1
75 61 69 1
76 69 72 1
77 62 70 1
78 70 73 1
79 71 77 ar
80 47 72 1
81 48 73 1
82 68 74 ar
83 74 80 ar
84 69 75 1
85 70 76 1
86 77 81 ar
87 75 78 1
88 76 79 1
89 49 80 ar
90 80 82 1
91 83 85 1
92 83 86 2
93 74 84 ar
94 84 87 ar
95 68 88 ar
96 87 88 ar
97 89 95 1
98 89 101 2
99 89 109 1
100 89 122 1
101 90 96 1
102 90 104 2
103 90 123 1
104 91 132 1
105 92 94 1
106 93 97 ar
107 94 100 ar
108 94 125 ar
109 97 108 ar
110 91 98 1
111 98 102 1
112 92 99 1
113 99 103 1
114 100 107 ar
115 98 105 1
116 105 110 1
117 99 106 1
118 106 111 1
119 107 115 ar
120 107 127 1
121 108 112 ar
122 90 109 1
123 105 113 1
124 113 116 1
125 106 114 1
126 114 117 1
127 115 121 ar
128 91 116 1
129 92 117 1
130 112 118 ar
131 118 124 ar
132 113 119 1
133 114 120 1
134 121 125 ar
135 119 122 1
136 120 123 1
137 93 124 ar
138 124 126 1
139 127 129 1
140 127 130 2
141 118 128 ar
142 128 131 ar
143 112 132 ar
144 131 132 ar
145 133 139 1
146 133 145 2
147 133 153 1
148 133 166 1
149 134 140 1
150 134 148 2
151 134 167 1
152 135 176 1
153 136 138 1
154 137 141 ar
155 138 144 ar
156 138 169 ar
157 141 152 ar
158 135 142 1
159 142 146 1
160 136 143 1
161 143 147 1
162 144 151 ar
163 142 149 1
164 149 154 1
165 143 150 1
166 150 155 1
167 151 159 ar
168 151 171 1
169 152 156 ar
170 134 153 1
171 149 157 1
172 157 160 1
173 150 158 1
174 158 161 1
175 159 165 ar
176 135 160 1
177 136 161 1
178 156 162 ar
179 162 168 ar
180 157 163 1
181 158 164 1
182 165 169 ar
183 163 166 1
184 164 167 1
185 137 168 ar
186 168 170 1
187 171 173 1
188 171 174 2
189 162 172 ar
190 172 175 ar
191 156 176 ar
192 175 176 ar
193 177 183 1
194 177 189 2
195 177 197 1
196 177 210 1
197 178 184 1
198 178 192 2
199 178 211 1
200 179 220 1
201 180 182 1
202 181 185 ar
203 182 188 ar
204 182 213 ar
205 185 196 ar
206 179 186 1
207 186 190 1
208 180 187 1
209 187 191 1
210 188 195 ar
211 186 193 1
212 193 198 1
213 187 194 1
214 194 199 1
215 195 203 ar
216 195 215 1
217 196 200 ar
218 178 197 1
219 193 201 1
220 201 204 1
221 194 202 1
222 202 205 1
223 203 209 ar
224 179 204 1
225 180 205 1
226 200 206 ar
227 206 212 ar
228 201 207 1
229 202 208 1
230 209 213 ar
231 207 210 1
232 208 211 1
233 181 212 ar
234 212 214 1
235 215 217 1
236 215 218 2
237 206 216 ar
238 216 219 ar
239 200 220 ar
240 219 220 ar
241 221 227 1
242 221 233 2
243 221 241 1
244 221 254 1
245 222 228 1
246 222 236 2
247 222 255 1
248 223 264 1
249 224 226 1
250 225 229 ar
251 226 232 ar
252 226 257 ar
253 229 240 ar
254 223 230 1
255 230 234 1
256 224 231 1
257 231 235 1
258 232 239 ar
259 230 237 1
260 237 242 1
261 231 238 1
262 238 243 1
263 239 247 ar
264 239 259 1
265 240 244 ar
266 222 241 1
267 237 245 1
268 245 248 1
269 238 246 1
270 246 249 1
271 247 253 ar
272 223 248 1
273 224 249 1
274 244 250 ar
275 250 256 ar
276 245 251 1
277 246 252 1
278 253 257 ar
279 251 254 1
280 252 255 1
281 225 256 ar
282 256 258 1
283 259 261 1
284 259 262 2
285 250 260 ar
286 260 263 ar
287 244 264 ar
288 263 264 ar
@<TRIPOS>SUBSTRUCTURE
1	NAD301	1	GROUP	1 A	NAD
2	NAD301	45	GROUP	1 B	NAD
3	NAD301	89	GROUP	1 C	NAD
4	NAD301	133	GROUP	1 D	NAD
5	NAD301	177	GROUP	1 E	NAD
6	NAD301	221	GROUP	1 F	NAD
