# created with PyMOL 3.1.0
@<TRIPOS>MOLECULE
9nbf
25 24 1                 
SMALL
USER_CHARGES
@<TRIPOS>ATOM
1	  C1	3.133	14.065	16.045	C.2	1	E64301	0.000	
2	  N1	0.854	12.202	19.616	N.pl3	1	E64301	0.000	
3	  O1	2.458	13.981	15.021	O.co2	1	E64301	0.000	
4	  C2	2.734	13.235	17.258	C.3	1	E64301	0.000	
5	  N2	-1.776	10.640	21.369	N.pl3	1	E64301	0.000	
6	  O2	4.151	14.806	16.217	O.co2	1	E64301	0.000	
7	  C3	1.236	13.349	17.493	C.3	1	E64301	0.000	
8	  N3	-6.348	13.353	21.532	N.pl3	1	E64301	0.000	
9	  O3	0.950	14.585	18.095	O.3	1	E64301	0.000	
10	  C4	0.706	12.146	18.276	C.2	1	E64301	0.000	
11	  N4	-6.853	15.143	20.137	N.pl3	1	E64301	0.000	
12	  O4	0.185	11.216	17.677	O.2	1	E64301	0.000	
13	  N5	-8.525	13.786	20.900	N.pl3	1	E64301	0.000	
14	  O5	-1.010	12.777	21.551	O.2	1	E64301	0.000	
15	  C6	0.412	11.167	20.538	C.3	1	E64301	0.000	
16	  C7	1.398	10.953	21.668	C.3	1	E64301	0.000	
17	  C8	2.624	10.139	21.276	C.3	1	E64301	0.000	
18	  C9	2.195	9.003	20.347	C.3	1	E64301	0.000	
19	 C10	3.309	9.611	22.535	C.3	1	E64301	0.000	
20	 C11	-0.875	11.614	21.205	C.2	1	E64301	0.000	
21	 C12	-3.064	10.825	21.991	C.3	1	E64301	0.000	
22	 C13	-4.135	11.228	20.990	C.3	1	E64301	0.000	
23	 C14	-4.106	12.700	20.620	C.3	1	E64301	0.000	
24	 C15	-4.911	13.579	21.577	C.3	1	E64301	0.000	
25	 C16	-7.224	14.099	20.856	C.2	1	E64301	0.000	
@<TRIPOS>BOND
1 1 3 ar
2 1 4 1
3 1 6 ar
4 2 15 1
5 4 7 1
6 5 21 1
7 7 9 1
8 7 10 1
9 8 25 1
10 2 10 1
11 10 12 2
12 15 16 1
13 15 20 1
14 16 17 1
15 17 18 1
16 17 19 1
17 5 20 1
18 14 20 2
19 21 22 1
20 22 23 1
21 23 24 1
22 8 24 1
23 11 25 ar
24 13 25 ar
@<TRIPOS>SUBSTRUCTURE
1	E64301	1	GROUP	1 A	E64
